xflr5 v6.47

 Calculated polar for: NACA 0010

 1 1 Reynolds number fixed          Mach number fixed         

 xtrf =   1.000 (top)        1.000 (bottom)
 Mach =   0.000     Re =     0.100 e 6     Ncrit =   9.000

  alpha     CL        CD       CDp       Cm    Top Xtr Bot Xtr   Cpmin    Chinge    XCp    
 ------- -------- --------- --------- -------- ------- ------- -------- --------- ---------
 -10.000  -0.6634   0.10693   0.10178   0.0109  1.0000  0.1584  -1.9322   0.0000   0.2590
  -9.800  -0.8595   0.06705   0.06143  -0.0226  1.0000  0.0782  -3.5867   0.0000   0.2157
  -9.700  -0.8500   0.06552   0.05993  -0.0225  1.0000  0.0776  -3.5310   0.0000   0.2156
  -9.600  -0.8453   0.06390   0.05832  -0.0223  1.0000  0.0770  -3.5092   0.0000   0.2158
  -9.400  -0.8827   0.05614   0.04977  -0.0210  1.0000  0.0710  -3.8392   0.0000   0.2184
  -9.300  -0.8789   0.05444   0.04802  -0.0206  1.0000  0.0707  -3.8257   0.0000   0.2187
  -9.200  -0.8766   0.05270   0.04620  -0.0202  1.0000  0.0703  -3.8228   0.0000   0.2192
  -9.100  -0.8749   0.05093   0.04431  -0.0197  1.0000  0.0700  -3.8268   0.0000   0.2198
  -9.000  -0.8735   0.04915   0.04237  -0.0191  1.0000  0.0697  -3.8347   0.0000   0.2205
  -8.900  -0.8720   0.04738   0.04042  -0.0185  1.0000  0.0694  -3.8442   0.0000   0.2212
  -8.800  -0.8702   0.04564   0.03849  -0.0178  1.0000  0.0692  -3.8531   0.0000   0.2221
  -8.700  -0.8678   0.04397   0.03661  -0.0170  1.0000  0.0691  -3.8598   0.0000   0.2229
  -8.600  -0.8649   0.04238   0.03480  -0.0163  1.0000  0.0692  -3.8627   0.0000   0.2237
  -8.500  -0.8618   0.04091   0.03307  -0.0155  1.0000  0.0696  -3.8630   0.0000   0.2247
  -8.400  -0.8587   0.03951   0.03136  -0.0146  1.0000  0.0703  -3.8655   0.0000   0.2257
  -8.300  -0.8559   0.03820   0.02968  -0.0135  1.0000  0.0710  -3.8719   0.0000   0.2269
  -8.200  -0.8466   0.03723   0.02883  -0.0135  1.0000  0.0722  -3.8001   0.0000   0.2268
  -8.100  -0.8382   0.03648   0.02809  -0.0133  1.0000  0.0734  -3.7373   0.0000   0.2271
  -8.000  -0.8310   0.03551   0.02700  -0.0128  1.0000  0.0744  -3.6990   0.0000   0.2276
  -7.900  -0.8241   0.03443   0.02575  -0.0122  1.0000  0.0752  -3.6695   0.0000   0.2283
  -7.800  -0.8169   0.03335   0.02447  -0.0115  1.0000  0.0760  -3.6422   0.0000   0.2290
  -7.700  -0.8097   0.03230   0.02319  -0.0109  1.0000  0.0769  -3.6157   0.0000   0.2297
  -7.600  -0.8025   0.03133   0.02193  -0.0101  1.0000  0.0779  -3.5916   0.0000   0.2306
  -7.500  -0.7933   0.03046   0.02111  -0.0100  1.0000  0.0794  -3.5277   0.0000   0.2307
  -7.400  -0.7839   0.02988   0.02057  -0.0098  1.0000  0.0814  -3.4580   0.0000   0.2309
  -7.300  -0.7755   0.02920   0.01975  -0.0093  1.0000  0.0835  -3.4081   0.0000   0.2315
  -7.200  -0.7675   0.02846   0.01873  -0.0086  1.0000  0.0855  -3.3728   0.0000   0.2323
  -7.100  -0.7576   0.02769   0.01809  -0.0085  1.0000  0.0874  -3.3020   0.0000   0.2324
  -7.000  -0.7480   0.02704   0.01743  -0.0082  1.0000  0.0894  -3.2490   0.0000   0.2327
  -6.900  -0.7387   0.02636   0.01662  -0.0078  1.0000  0.0916  -3.2091   0.0000   0.2333
  -6.800  -0.7295   0.02568   0.01590  -0.0074  1.0000  0.0941  -3.1615   0.0000   0.2337
  -6.700  -0.7201   0.02517   0.01544  -0.0071  1.0000  0.0972  -3.1020   0.0000   0.2340
  -6.600  -0.7110   0.02465   0.01475  -0.0066  1.0000  0.1007  -3.0591   0.0000   0.2347
  -6.500  -0.7015   0.02403   0.01426  -0.0064  1.0000  0.1037  -2.9983   0.0000   0.2349
  -6.400  -0.6921   0.02350   0.01369  -0.0060  1.0000  0.1073  -2.9479   0.0000   0.2354
  -6.300  -0.6828   0.02292   0.01313  -0.0057  1.0000  0.1110  -2.8946   0.0000   0.2359
  -6.200  -0.6737   0.02246   0.01266  -0.0053  1.0000  0.1157  -2.8399   0.0000   0.2364
  -6.100  -0.6647   0.02194   0.01220  -0.0049  1.0000  0.1203  -2.7842   0.0000   0.2370
  -6.000  -0.6556   0.02151   0.01169  -0.0044  1.0000  0.1261  -2.7337   0.0000   0.2376
  -5.900  -0.6469   0.02098   0.01130  -0.0041  1.0000  0.1314  -2.6758   0.0000   0.2382
  -5.800  -0.6383   0.02050   0.01087  -0.0036  1.0000  0.1380  -2.6220   0.0000   0.2389
  -5.700  -0.6297   0.02006   0.01045  -0.0031  1.0000  0.1457  -2.5686   0.0000   0.2397
  -5.600  -0.6212   0.01961   0.01005  -0.0026  1.0000  0.1544  -2.5153   0.0000   0.2405
  -5.500  -0.6130   0.01916   0.00968  -0.0021  1.0000  0.1642  -2.4667   0.0000   0.2413
  -5.400  -0.6051   0.01870   0.00933  -0.0016  1.0000  0.1753  -2.4194   0.0000   0.2422
  -5.300  -0.5973   0.01824   0.00899  -0.0010  1.0000  0.1883  -2.3727   0.0000   0.2432
  -5.200  -0.5895   0.01780   0.00862  -0.0004  1.0000  0.2049  -2.3266   0.0000   0.2443
  -5.100  -0.5822   0.01733   0.00832   0.0002  1.0000  0.2229  -2.2796   0.0000   0.2454
  -5.000  -0.5749   0.01688   0.00803   0.0008  1.0000  0.2447  -2.2329   0.0000   0.2466
  -4.900  -0.5677   0.01644   0.00776   0.0015  1.0000  0.2703  -2.1855   0.0000   0.2479
  -4.800  -0.5605   0.01604   0.00753   0.0021  1.0000  0.2984  -2.1373   0.0000   0.2492
  -4.700  -0.5535   0.01566   0.00734   0.0028  1.0000  0.3271  -2.0879   0.0000   0.2506
  -4.600  -0.5462   0.01534   0.00717   0.0035  1.0000  0.3566  -2.0376   0.0000   0.2520
  -4.500  -0.5388   0.01505   0.00702   0.0043  1.0000  0.3859  -1.9864   0.0000   0.2535
  -4.400  -0.5312   0.01480   0.00689   0.0050  1.0000  0.4142  -1.9346   0.0000   0.2550
  -4.300  -0.5235   0.01457   0.00679   0.0057  1.0000  0.4411  -1.8835   0.0000   0.2566
  -4.200  -0.5158   0.01436   0.00669   0.0064  1.0000  0.4667  -1.8359   0.0000   0.2582
  -4.100  -0.5079   0.01417   0.00659   0.0072  1.0000  0.4916  -1.7880   0.0000   0.2600
  -4.000  -0.4999   0.01400   0.00651   0.0079  1.0000  0.5160  -1.7401   0.0000   0.2617
  -3.900  -0.4919   0.01384   0.00645   0.0086  1.0000  0.5395  -1.6922   0.0000   0.2636
  -3.800  -0.4838   0.01369   0.00639   0.0094  1.0000  0.5621  -1.6443   0.0000   0.2656
  -3.700  -0.4757   0.01356   0.00633   0.0102  1.0000  0.5848  -1.5967   0.0000   0.2676
  -3.600  -0.4675   0.01343   0.00630   0.0110  1.0000  0.6060  -1.5490   0.0000   0.2697
  -3.500  -0.4593   0.01332   0.00626   0.0118  1.0000  0.6276  -1.5018   0.0000   0.2720
  -3.400  -0.4510   0.01322   0.00624   0.0126  1.0000  0.6480  -1.4557   0.0000   0.2744
  -3.300  -0.4428   0.01313   0.00622   0.0135  1.0000  0.6683  -1.4130   0.0000   0.2769
  -3.200  -0.4345   0.01306   0.00618   0.0144  1.0000  0.6887  -1.3707   0.0000   0.2795
  -3.100  -0.4262   0.01300   0.00619   0.0153  1.0000  0.7075  -1.3283   0.0000   0.2824
  -3.000  -0.4180   0.01294   0.00619   0.0162  1.0000  0.7268  -1.2865   0.0000   0.2854
  -2.900  -0.4098   0.01290   0.00620   0.0172  1.0000  0.7458  -1.2451   0.0000   0.2885
  -2.800  -0.4013   0.01289   0.00623   0.0181  1.0000  0.7634  -1.2033   0.0000   0.2919
  -2.700  -0.3930   0.01288   0.00626   0.0191  1.0000  0.7812  -1.1645   0.0000   0.2955
  -2.600  -0.3847   0.01288   0.00629   0.0201  1.0000  0.7992  -1.1273   0.0000   0.2991
  -2.500  -0.3759   0.01291   0.00634   0.0211  1.0000  0.8158  -1.0893   0.0000   0.3030
  -2.400  -0.3666   0.01295   0.00641   0.0220  1.0000  0.8319  -1.0505   0.0000   0.3069
  -2.300  -0.3569   0.01301   0.00647   0.0228  1.0000  0.8479  -1.0114   0.0000   0.3108
  -2.200  -0.3469   0.01307   0.00652   0.0235  1.0000  0.8640  -0.9746   0.0000   0.3147
  -2.100  -0.3355   0.01316   0.00659   0.0239  1.0000  0.8792  -0.9363   0.0000   0.3184
  -2.000  -0.3214   0.01327   0.00669   0.0239  1.0000  0.8930  -0.8938   0.0000   0.3214
  -1.900  -0.3052   0.01339   0.00678   0.0233  1.0000  0.9063  -0.8500   0.0000   0.3236
  -1.800  -0.2865   0.01352   0.00687   0.0223  1.0000  0.9186  -0.8047   0.0000   0.3249
  -1.700  -0.2652   0.01366   0.00696   0.0206  1.0000  0.9299  -0.7572   0.0000   0.3249
  -1.600  -0.2415   0.01378   0.00703   0.0184  1.0000  0.9399  -0.7093   0.0000   0.3234
  -1.500  -0.2159   0.01389   0.00707   0.0158  1.0000  0.9488  -0.6620   0.0000   0.3201
  -1.400  -0.1883   0.01397   0.00709   0.0127  1.0000  0.9568  -0.6154   0.0000   0.3141
  -1.300  -0.1602   0.01402   0.00708   0.0094  1.0000  0.9642  -0.5715   0.0000   0.3051
  -1.200  -0.1306   0.01403   0.00704   0.0057  1.0000  0.9702  -0.5295   0.0000   0.2900
  -1.100  -0.1026   0.01401   0.00698   0.0023  1.0000  0.9766  -0.4924   0.0000   0.2683
  -1.000  -0.0751   0.01396   0.00689  -0.0011  1.0000  0.9830  -0.4587   0.0000   0.2307
  -0.900  -0.0477   0.01388   0.00678  -0.0045  1.0000  0.9891  -0.4279   0.0000   0.1491
  -0.800  -0.0203   0.01378   0.00665  -0.0080  1.0000  0.9949  -0.3992   0.0000  -0.1561
  -0.700   0.0053   0.01365   0.00650  -0.0112  1.0000  1.0000  -0.3741   0.0000   2.4071
  -0.600   0.0067   0.01353   0.00640  -0.0100  1.0000  1.0000  -0.3681   0.0000   1.7704
  -0.500   0.0072   0.01344   0.00631  -0.0087  1.0000  1.0000  -0.3628   0.0000   1.4685
  -0.400   0.0071   0.01335   0.00623  -0.0072  1.0000  1.0000  -0.3581   0.0000   1.2857
  -0.300   0.0062   0.01329   0.00618  -0.0056  1.0000  1.0000  -0.3538   0.0000   1.1583
  -0.200   0.0047   0.01324   0.00614  -0.0038  1.0000  1.0000  -0.3503   0.0000   1.0791
  -0.100   0.0025   0.01321   0.00611  -0.0019  1.0000  1.0000  -0.3471   0.0000   1.0365
   0.000   0.0000   0.01320   0.00611  -0.0000  1.0000  1.0000  -0.3442   0.0000   0.3916
   0.100  -0.0025   0.01321   0.00611   0.0019  1.0000  1.0000  -0.3471   0.0000   1.0364
   0.200  -0.0047   0.01324   0.00614   0.0038  1.0000  1.0000  -0.3503   0.0000   1.0791
   0.300  -0.0062   0.01329   0.00618   0.0056  1.0000  1.0000  -0.3538   0.0000   1.1584
   0.400  -0.0071   0.01335   0.00623   0.0072  1.0000  1.0000  -0.3581   0.0000   1.2861
   0.500  -0.0072   0.01343   0.00630   0.0087  1.0000  1.0000  -0.3628   0.0000   1.4692
   0.600  -0.0067   0.01353   0.00639   0.0100  1.0000  1.0000  -0.3681   0.0000   1.7718
   0.700  -0.0053   0.01365   0.00650   0.0112  1.0000  1.0000  -0.3742   0.0000   2.4122
   0.800   0.0203   0.01378   0.00665   0.0080  0.9949  1.0000  -0.3992   0.0000  -0.1565
   0.900   0.0477   0.01388   0.00678   0.0045  0.9891  1.0000  -0.4279   0.0000   0.1490
   1.000   0.0751   0.01396   0.00689   0.0011  0.9830  1.0000  -0.4587   0.0000   0.2307
   1.100   0.1026   0.01401   0.00698  -0.0023  0.9766  1.0000  -0.4924   0.0000   0.2682
   1.200   0.1306   0.01403   0.00704  -0.0057  0.9702  1.0000  -0.5295   0.0000   0.2900
   1.300   0.1602   0.01402   0.00708  -0.0093  0.9642  1.0000  -0.5715   0.0000   0.3051
   1.400   0.1883   0.01397   0.00709  -0.0127  0.9568  1.0000  -0.6153   0.0000   0.3141
   1.500   0.2158   0.01389   0.00707  -0.0158  0.9488  1.0000  -0.6620   0.0000   0.3201
   1.600   0.2415   0.01378   0.00703  -0.0184  0.9399  1.0000  -0.7092   0.0000   0.3234
   1.700   0.2652   0.01366   0.00696  -0.0206  0.9299  1.0000  -0.7572   0.0000   0.3249
   1.800   0.2865   0.01352   0.00687  -0.0223  0.9186  1.0000  -0.8047   0.0000   0.3249
   1.900   0.3052   0.01339   0.00678  -0.0233  0.9063  1.0000  -0.8500   0.0000   0.3236
   2.000   0.3214   0.01327   0.00669  -0.0239  0.8930  1.0000  -0.8938   0.0000   0.3214
   2.100   0.3354   0.01316   0.00659  -0.0239  0.8792  1.0000  -0.9362   0.0000   0.3184
   2.200   0.3469   0.01307   0.00652  -0.0235  0.8640  1.0000  -0.9745   0.0000   0.3147
   2.300   0.3569   0.01301   0.00647  -0.0228  0.8479  1.0000  -1.0113   0.0000   0.3108
   2.400   0.3666   0.01295   0.00641  -0.0220  0.8319  1.0000  -1.0504   0.0000   0.3069
   2.500   0.3759   0.01291   0.00634  -0.0211  0.8158  1.0000  -1.0892   0.0000   0.3030
   2.600   0.3846   0.01288   0.00629  -0.0201  0.7992  1.0000  -1.1272   0.0000   0.2991
   2.700   0.3929   0.01288   0.00626  -0.0191  0.7812  1.0000  -1.1644   0.0000   0.2955
   2.800   0.4013   0.01289   0.00623  -0.0181  0.7634  1.0000  -1.2033   0.0000   0.2919
   2.900   0.4097   0.01290   0.00619  -0.0171  0.7459  1.0000  -1.2450   0.0000   0.2885
   3.000   0.4179   0.01294   0.00619  -0.0162  0.7268  1.0000  -1.2864   0.0000   0.2854
   3.100   0.4262   0.01299   0.00619  -0.0153  0.7075  1.0000  -1.3282   0.0000   0.2824
   3.200   0.4345   0.01306   0.00618  -0.0144  0.6887  1.0000  -1.3706   0.0000   0.2795
   3.300   0.4427   0.01313   0.00622  -0.0135  0.6683  1.0000  -1.4129   0.0000   0.2769
   3.400   0.4510   0.01322   0.00624  -0.0126  0.6480  1.0000  -1.4556   0.0000   0.2744
   3.500   0.4592   0.01332   0.00626  -0.0118  0.6276  1.0000  -1.5017   0.0000   0.2720
   3.600   0.4674   0.01343   0.00630  -0.0110  0.6060  1.0000  -1.5489   0.0000   0.2697
   3.700   0.4756   0.01356   0.00633  -0.0102  0.5849  1.0000  -1.5966   0.0000   0.2675
   3.800   0.4838   0.01369   0.00639  -0.0094  0.5621  1.0000  -1.6442   0.0000   0.2655
   3.900   0.4919   0.01384   0.00645  -0.0086  0.5396  1.0000  -1.6921   0.0000   0.2636
   4.000   0.4999   0.01400   0.00651  -0.0079  0.5160  1.0000  -1.7400   0.0000   0.2617
   4.100   0.5079   0.01417   0.00659  -0.0071  0.4916  1.0000  -1.7879   0.0000   0.2600
   4.200   0.5158   0.01436   0.00669  -0.0064  0.4667  1.0000  -1.8358   0.0000   0.2582
   4.300   0.5235   0.01457   0.00679  -0.0057  0.4411  1.0000  -1.8834   0.0000   0.2566
   4.400   0.5312   0.01480   0.00689  -0.0050  0.4142  1.0000  -1.9345   0.0000   0.2550
   4.500   0.5387   0.01505   0.00702  -0.0042  0.3859  1.0000  -1.9863   0.0000   0.2535
   4.600   0.5462   0.01534   0.00717  -0.0035  0.3567  1.0000  -2.0375   0.0000   0.2520
   4.700   0.5534   0.01566   0.00733  -0.0028  0.3271  1.0000  -2.0879   0.0000   0.2506
   4.800   0.5605   0.01604   0.00752  -0.0021  0.2984  1.0000  -2.1372   0.0000   0.2492
   4.900   0.5677   0.01644   0.00776  -0.0015  0.2704  1.0000  -2.1854   0.0000   0.2478
   5.000   0.5749   0.01687   0.00803  -0.0008  0.2448  1.0000  -2.2328   0.0000   0.2466
   5.100   0.5822   0.01733   0.00832  -0.0002  0.2230  1.0000  -2.2796   0.0000   0.2454
   5.200   0.5895   0.01780   0.00862   0.0004  0.2049  1.0000  -2.3265   0.0000   0.2443
   5.300   0.5973   0.01824   0.00899   0.0010  0.1883  1.0000  -2.3726   0.0000   0.2432
   5.400   0.6051   0.01870   0.00933   0.0016  0.1753  1.0000  -2.4194   0.0000   0.2422
   5.500   0.6130   0.01915   0.00968   0.0021  0.1642  1.0000  -2.4666   0.0000   0.2413
   5.600   0.6212   0.01961   0.01005   0.0026  0.1544  1.0000  -2.5152   0.0000   0.2405
   5.700   0.6296   0.02005   0.01045   0.0031  0.1458  1.0000  -2.5685   0.0000   0.2397
   5.800   0.6382   0.02050   0.01087   0.0036  0.1380  1.0000  -2.6219   0.0000   0.2389
   5.900   0.6469   0.02098   0.01130   0.0041  0.1314  1.0000  -2.6758   0.0000   0.2382
   6.000   0.6556   0.02151   0.01169   0.0044  0.1261  1.0000  -2.7336   0.0000   0.2376
   6.100   0.6647   0.02194   0.01220   0.0049  0.1203  1.0000  -2.7841   0.0000   0.2370
   6.200   0.6737   0.02246   0.01265   0.0053  0.1157  1.0000  -2.8399   0.0000   0.2364
   6.300   0.6828   0.02292   0.01313   0.0057  0.1110  1.0000  -2.8946   0.0000   0.2359
   6.400   0.6921   0.02350   0.01369   0.0060  0.1073  1.0000  -2.9479   0.0000   0.2354
   6.500   0.7015   0.02403   0.01426   0.0064  0.1037  1.0000  -2.9982   0.0000   0.2349
   6.600   0.7110   0.02465   0.01475   0.0066  0.1007  1.0000  -3.0590   0.0000   0.2347
   6.700   0.7201   0.02517   0.01544   0.0071  0.0972  1.0000  -3.1020   0.0000   0.2340
   6.800   0.7294   0.02568   0.01590   0.0074  0.0941  1.0000  -3.1615   0.0000   0.2337
   6.900   0.7387   0.02636   0.01662   0.0078  0.0916  1.0000  -3.2091   0.0000   0.2333
   7.000   0.7480   0.02704   0.01743   0.0082  0.0894  1.0000  -3.2491   0.0000   0.2327
   7.100   0.7576   0.02769   0.01809   0.0085  0.0874  1.0000  -3.3020   0.0000   0.2324
   7.200   0.7675   0.02846   0.01873   0.0086  0.0855  1.0000  -3.3728   0.0000   0.2323
   7.300   0.7755   0.02920   0.01975   0.0093  0.0835  1.0000  -3.4081   0.0000   0.2315
   7.400   0.7840   0.02988   0.02057   0.0098  0.0814  1.0000  -3.4580   0.0000   0.2309
   7.500   0.7933   0.03046   0.02111   0.0100  0.0794  1.0000  -3.5278   0.0000   0.2307
   7.600   0.8025   0.03133   0.02193   0.0101  0.0779  1.0000  -3.5916   0.0000   0.2306
   7.700   0.8097   0.03230   0.02319   0.0109  0.0769  1.0000  -3.6157   0.0000   0.2297
   7.800   0.8170   0.03335   0.02447   0.0115  0.0760  1.0000  -3.6422   0.0000   0.2290
   7.900   0.8241   0.03443   0.02575   0.0122  0.0752  1.0000  -3.6695   0.0000   0.2283
   8.000   0.8311   0.03551   0.02700   0.0128  0.0744  1.0000  -3.6991   0.0000   0.2276
   8.100   0.8382   0.03648   0.02809   0.0133  0.0734  1.0000  -3.7374   0.0000   0.2271
   8.200   0.8467   0.03723   0.02883   0.0135  0.0722  1.0000  -3.8003   0.0000   0.2269
   8.300   0.8559   0.03820   0.02968   0.0135  0.0710  1.0000  -3.8719   0.0000   0.2269
   8.400   0.8588   0.03951   0.03137   0.0146  0.0703  1.0000  -3.8655   0.0000   0.2257
   8.500   0.8618   0.04091   0.03307   0.0155  0.0696  1.0000  -3.8630   0.0000   0.2247
   8.600   0.8650   0.04238   0.03480   0.0163  0.0692  1.0000  -3.8628   0.0000   0.2238
   8.700   0.8679   0.04397   0.03661   0.0170  0.0691  1.0000  -3.8598   0.0000   0.2229
   8.800   0.8702   0.04565   0.03850   0.0177  0.0692  1.0000  -3.8532   0.0000   0.2221
   8.900   0.8721   0.04739   0.04043   0.0184  0.0694  1.0000  -3.8442   0.0000   0.2213
   9.000   0.8736   0.04916   0.04238   0.0191  0.0697  1.0000  -3.8347   0.0000   0.2205
   9.100   0.8750   0.05094   0.04431   0.0197  0.0700  1.0000  -3.8268   0.0000   0.2198
   9.200   0.8767   0.05271   0.04620   0.0202  0.0703  1.0000  -3.8229   0.0000   0.2192
   9.300   0.8790   0.05445   0.04803   0.0206  0.0707  1.0000  -3.8259   0.0000   0.2187
   9.400   0.8828   0.05615   0.04978   0.0209  0.0710  1.0000  -3.8394   0.0000   0.2184
   9.600   0.8456   0.06391   0.05834   0.0222  0.0770  1.0000  -3.5096   0.0000   0.2158
   9.700   0.8503   0.06553   0.05995   0.0224  0.0776  1.0000  -3.5318   0.0000   0.2157
   9.800   0.8598   0.06707   0.06144   0.0225  0.0782  1.0000  -3.5879   0.0000   0.2158
  10.000   0.5224   0.09839   0.09346   0.0005  0.1687  1.0000  -1.5726   0.0000   0.2430
  10.100   0.5216   0.10006   0.09513   0.0002  0.1671  1.0000  -1.5679   0.0000   0.2435
  10.200   0.5242   0.10153   0.09660   0.0003  0.1657  1.0000  -1.5787   0.0000   0.2432
  10.300   0.5310   0.10287   0.09795   0.0009  0.1645  1.0000  -1.6081   0.0000   0.2420
  10.400   0.5446   0.10419   0.09930   0.0023  0.1636  1.0000  -1.6665   0.0000   0.2394
  10.500   0.5302   0.10662   0.10168   0.0005  0.1627  1.0000  -1.5978   0.0000   0.2428
  10.600   0.5131   0.10873   0.10375  -0.0017  0.1597  1.0000  -1.5193   0.0000   0.2469
  10.700   0.5121   0.11025   0.10527  -0.0020  0.1576  1.0000  -1.5135   0.0000   0.2474
  10.800   0.5157   0.11159   0.10662  -0.0018  0.1559  1.0000  -1.5281   0.0000   0.2470
  10.900   0.5444   0.11247   0.10755   0.0014  0.1537  1.0000  -1.6605   0.0000   0.2408
  11.000   0.5284   0.11462   0.10966  -0.0008  0.1532  1.0000  -1.5811   0.0000   0.2448
  11.100   0.5122   0.11653   0.11153  -0.0029  0.1518  1.0000  -1.5022   0.0000   0.2489
  11.200   0.5070   0.11803   0.11302  -0.0037  0.1492  1.0000  -1.4754   0.0000   0.2506
  11.300   0.5102   0.11924   0.11424  -0.0036  0.1467  1.0000  -1.4894   0.0000   0.2502
  11.400   0.6634   0.13058   0.12530  -0.0191  0.1322  1.0000  -1.8467   0.0000   0.2701
  11.500   0.6628   0.13219   0.12690  -0.0199  0.1301  1.0000  -1.8348   0.0000   0.2712
  11.600   0.6662   0.13359   0.12831  -0.0199  0.1285  1.0000  -1.8466   0.0000   0.2710
  11.700   0.6739   0.13489   0.12963  -0.0191  0.1271  1.0000  -1.8832   0.0000   0.2694
  12.000   0.5180   0.12918   0.12418  -0.0045  0.1344  1.0000  -1.5014   0.0000   0.2514
  12.100   0.5056   0.13033   0.12531  -0.0061  0.1327  1.0000  -1.4369   0.0000   0.2548
  12.200   0.5027   0.13149   0.12646  -0.0067  0.1307  1.0000  -1.4185   0.0000   0.2559
  12.300   0.5042   0.13266   0.12763  -0.0068  0.1290  1.0000  -1.4216   0.0000   0.2561
  12.400   0.5107   0.13398   0.12897  -0.0064  0.1274  1.0000  -1.4485   0.0000   0.2551
  12.500   0.5311   0.13614   0.13116  -0.0045  0.1261  1.0000  -1.5394   0.0000   0.2510
  12.600   0.5183   0.13716   0.13215  -0.0062  0.1256  1.0000  -1.4695   0.0000   0.2545
  12.700   0.5053   0.13773   0.13269  -0.0077  0.1246  1.0000  -1.4028   0.0000   0.2576
  12.800   0.4992   0.13838   0.13334  -0.0083  0.1229  1.0000  -1.3707   0.0000   0.2591
  12.900   0.4979   0.13921   0.13418  -0.0085  0.1212  1.0000  -1.3611   0.0000   0.2595
  13.000   0.5001   0.14023   0.13521  -0.0085  0.1197  1.0000  -1.3678   0.0000   0.2593
  13.100   0.5097   0.14195   0.13694  -0.0080  0.1182  1.0000  -1.4066   0.0000   0.2580
  13.200   0.6789   0.15910   0.15373  -0.0298  0.1044  1.0000  -1.7851   0.0000   0.2834
  13.300   0.6826   0.16051   0.15514  -0.0299  0.1030  1.0000  -1.8021   0.0000   0.2833
  13.400   0.6895   0.16202   0.15667  -0.0294  0.1018  1.0000  -1.8421   0.0000   0.2821
  13.500   0.7039   0.16407   0.15876  -0.0273  0.1009  1.0000  -1.9353   0.0000   0.2782
  13.600   0.6978   0.16572   0.16036  -0.0296  0.1005  1.0000  -1.8739   0.0000   0.2816
  13.700   0.6895   0.16695   0.16156  -0.0322  0.0995  1.0000  -1.7987   0.0000   0.2857
  13.800   0.6880   0.16834   0.16294  -0.0335  0.0979  1.0000  -1.7720   0.0000   0.2876
  13.900   0.6897   0.16976   0.16436  -0.0341  0.0965  1.0000  -1.7706   0.0000   0.2883
  14.000   0.6931   0.17118   0.16578  -0.0344  0.0952  1.0000  -1.7832   0.0000   0.2884
  14.100   0.6987   0.17268   0.16730  -0.0342  0.0941  1.0000  -1.8132   0.0000   0.2877
  14.200   0.7106   0.17490   0.16954  -0.0329  0.0932  1.0000  -1.8864   0.0000   0.2849
  14.300   0.7121   0.17678   0.17140  -0.0336  0.0928  1.0000  -1.8784   0.0000   0.2857
  14.400   0.7044   0.17764   0.17223  -0.0361  0.0922  1.0000  -1.8031   0.0000   0.2896
  14.500   0.7017   0.17886   0.17343  -0.0379  0.0909  1.0000  -1.7616   0.0000   0.2922
  14.600   0.7029   0.18026   0.17483  -0.0387  0.0895  1.0000  -1.7519   0.0000   0.2932
  14.700   0.7056   0.18165   0.17623  -0.0393  0.0883  1.0000  -1.7555   0.0000   0.2937
  14.800   0.7095   0.18307   0.17765  -0.0395  0.0872  1.0000  -1.7708   0.0000   0.2936
  14.900   0.7160   0.18469   0.17928  -0.0392  0.0862  1.0000  -1.8082   0.0000   0.2925
  15.000   0.7289   0.18760   0.18223  -0.0376  0.0854  1.0000  -1.8881   0.0000   0.2893
  15.100   0.7221   0.18824   0.18283  -0.0401  0.0850  1.0000  -1.8152   0.0000   0.2931
  15.200   0.7183   0.18920   0.18376  -0.0423  0.0841  1.0000  -1.7566   0.0000   0.2963
  15.300   0.7189   0.19050   0.18505  -0.0435  0.0826  1.0000  -1.7360   0.0000   0.2978
  15.400   0.7215   0.19184   0.18640  -0.0441  0.0811  1.0000  -1.7371   0.0000   0.2984
  15.500   0.7257   0.19320   0.18777  -0.0443  0.0798  1.0000  -1.7553   0.0000   0.2982
  15.600   0.7330   0.19491   0.18950  -0.0437  0.0787  1.0000  -1.8045   0.0000   0.2966
  15.700   0.7420   0.19755   0.19215  -0.0428  0.0781  1.0000  -1.8578   0.0000   0.2946
  15.800   0.7373   0.19820   0.19276  -0.0452  0.0777  1.0000  -1.7891   0.0000   0.2981
  15.900   0.7354   0.19920   0.19375  -0.0473  0.0768  1.0000  -1.7383   0.0000   0.3009
  16.000   0.7367   0.20051   0.19506  -0.0484  0.0756  1.0000  -1.7194   0.0000   0.3022
  16.100   0.7393   0.20188   0.19643  -0.0492  0.0745  1.0000  -1.7192   0.0000   0.3029
  16.200   0.7425   0.20324   0.19779  -0.0498  0.0735  1.0000  -1.7302   0.0000   0.3033
  16.300   0.7464   0.20464   0.19919  -0.0501  0.0727  1.0000  -1.7503   0.0000   0.3033
  16.400   0.7514   0.20621   0.20077  -0.0501  0.0719  1.0000  -1.7840   0.0000   0.3027
  16.500   0.7594   0.20852   0.20311  -0.0493  0.0714  1.0000  -1.8465   0.0000   0.3008
  16.600   0.7626   0.21040   0.20497  -0.0498  0.0710  1.0000  -1.8522   0.0000   0.3012
  16.700   0.7600   0.21101   0.20556  -0.0521  0.0707  1.0000  -1.7940   0.0000   0.3042
  16.800   0.7597   0.21200   0.20654  -0.0539  0.0700  1.0000  -1.7543   0.0000   0.3065
  16.900   0.7615   0.21329   0.20782  -0.0551  0.0690  1.0000  -1.7402   0.0000   0.3078
  17.000   0.7641   0.21464   0.20917  -0.0560  0.0680  1.0000  -1.7392   0.0000   0.3085
  17.100   0.7673   0.21599   0.21052  -0.0567  0.0671  1.0000  -1.7454   0.0000   0.3090
  17.200   0.7708   0.21734   0.21188  -0.0572  0.0663  1.0000  -1.7584   0.0000   0.3092
  17.300   0.7749   0.21878   0.21332  -0.0575  0.0656  1.0000  -1.7796   0.0000   0.3091
  17.400   0.7799   0.22045   0.21502  -0.0575  0.0650  1.0000  -1.8142   0.0000   0.3085
  17.500   0.7878   0.22309   0.21768  -0.0566  0.0646  1.0000  -1.8775   0.0000   0.3065
  17.600   0.7890   0.22438   0.21894  -0.0579  0.0643  1.0000  -1.8566   0.0000   0.3079
  17.700   0.7880   0.22499   0.21954  -0.0600  0.0640  1.0000  -1.8044   0.0000   0.3105
  17.800   0.7888   0.22600   0.22054  -0.0617  0.0634  1.0000  -1.7691   0.0000   0.3125
  17.900   0.7911   0.22726   0.22180  -0.0629  0.0625  1.0000  -1.7544   0.0000   0.3136
  18.000   0.7939   0.22857   0.22311  -0.0638  0.0616  1.0000  -1.7512   0.0000   0.3144
  18.100   0.7971   0.22989   0.22443  -0.0646  0.0608  1.0000  -1.7551   0.0000   0.3148
  18.200   0.8007   0.23121   0.22575  -0.0652  0.0600  1.0000  -1.7662   0.0000   0.3151
  18.300   0.8047   0.23261   0.22716  -0.0656  0.0592  1.0000  -1.7873   0.0000   0.3150
  18.400   0.8098   0.23433   0.22889  -0.0654  0.0586  1.0000  -1.8270   0.0000   0.3142
  18.500   0.8178   0.23743   0.23200  -0.0644  0.0581  1.0000  -1.8974   0.0000   0.3120
  18.600   0.8165   0.23766   0.23221  -0.0667  0.0579  1.0000  -1.8349   0.0000   0.3149
  18.700   0.8170   0.23836   0.23290  -0.0688  0.0574  1.0000  -1.7861   0.0000   0.3171
  18.800   0.8191   0.23952   0.23406  -0.0702  0.0565  1.0000  -1.7626   0.0000   0.3185
  18.900   0.8220   0.24079   0.23532  -0.0712  0.0556  1.0000  -1.7563   0.0000   0.3192
  19.000   0.8253   0.24209   0.23663  -0.0720  0.0548  1.0000  -1.7577   0.0000   0.3197
  19.100   0.8287   0.24340   0.23794  -0.0727  0.0541  1.0000  -1.7639   0.0000   0.3201
  19.200   0.8323   0.24473   0.23927  -0.0733  0.0535  1.0000  -1.7745   0.0000   0.3203
  19.300   0.8362   0.24614   0.24069  -0.0738  0.0530  1.0000  -1.7914   0.0000   0.3203
  19.400   0.8405   0.24775   0.24232  -0.0740  0.0525  1.0000  -1.8181   0.0000   0.3199
  19.500   0.8460   0.25002   0.24461  -0.0737  0.0522  1.0000  -1.8624   0.0000   0.3189
  19.600   0.8499   0.25193   0.24651  -0.0742  0.0520  1.0000  -1.8703   0.0000   0.3189
  19.700   0.8505   0.25244   0.24700  -0.0762  0.0518  1.0000  -1.8224   0.0000   0.3210
  19.800   0.8521   0.25324   0.24780  -0.0779  0.0515  1.0000  -1.7836   0.0000   0.3227
  19.900   0.8546   0.25435   0.24890  -0.0793  0.0509  1.0000  -1.7585   0.0000   0.3239
  20.000   0.8575   0.25559   0.25014  -0.0804  0.0503  1.0000  -1.7458   0.0000   0.3248


