xflr5 v6.47

 Calculated polar for: NACA 0010

 1 1 Reynolds number fixed          Mach number fixed         

 xtrf =   1.000 (top)        1.000 (bottom)
 Mach =   0.000     Re =     0.550 e 6     Ncrit =   9.000

  alpha     CL        CD       CDp       Cm    Top Xtr Bot Xtr   Cpmin    Chinge    XCp    
 ------- -------- --------- --------- -------- ------- ------- -------- --------- ---------
 -10.000  -1.0347   0.02154   0.01550  -0.0114  1.0000  0.0190  -6.5521   0.0000   0.2293
  -9.900  -1.0273   0.02110   0.01504  -0.0109  1.0000  0.0192  -6.4521   0.0000   0.2297
  -9.800  -1.0191   0.02077   0.01470  -0.0106  1.0000  0.0195  -6.3444   0.0000   0.2301
  -9.700  -1.0107   0.02049   0.01441  -0.0103  1.0000  0.0198  -6.2423   0.0000   0.2304
  -9.600  -1.0020   0.02023   0.01413  -0.0100  1.0000  0.0202  -6.1430   0.0000   0.2308
  -9.500  -0.9933   0.01997   0.01384  -0.0097  1.0000  0.0205  -6.0456   0.0000   0.2311
  -9.400  -0.9846   0.01970   0.01354  -0.0094  1.0000  0.0209  -5.9506   0.0000   0.2315
  -9.300  -0.9758   0.01943   0.01323  -0.0090  1.0000  0.0213  -5.8577   0.0000   0.2318
  -9.200  -0.9669   0.01916   0.01292  -0.0087  1.0000  0.0217  -5.7658   0.0000   0.2322
  -9.100  -0.9579   0.01892   0.01263  -0.0084  1.0000  0.0220  -5.6739   0.0000   0.2326
  -9.000  -0.9487   0.01870   0.01236  -0.0081  1.0000  0.0222  -5.5808   0.0000   0.2329
  -8.900  -0.9422   0.01806   0.01170  -0.0075  1.0000  0.0227  -5.5135   0.0000   0.2336
  -8.800  -0.9344   0.01764   0.01127  -0.0070  1.0000  0.0231  -5.4291   0.0000   0.2341
  -8.700  -0.9258   0.01735   0.01098  -0.0067  1.0000  0.0235  -5.3363   0.0000   0.2345
  -8.600  -0.9170   0.01710   0.01072  -0.0064  1.0000  0.0239  -5.2421   0.0000   0.2349
  -8.500  -0.9080   0.01687   0.01047  -0.0061  1.0000  0.0243  -5.1488   0.0000   0.2353
  -8.400  -0.8989   0.01663   0.01022  -0.0057  1.0000  0.0248  -5.0569   0.0000   0.2357
  -8.300  -0.8898   0.01640   0.00996  -0.0054  1.0000  0.0253  -4.9664   0.0000   0.2361
  -8.200  -0.8806   0.01619   0.00971  -0.0051  1.0000  0.0258  -4.8763   0.0000   0.2365
  -8.100  -0.8712   0.01601   0.00949  -0.0048  1.0000  0.0263  -4.7852   0.0000   0.2369
  -8.000  -0.8635   0.01560   0.00907  -0.0043  1.0000  0.0268  -4.7073   0.0000   0.2376
  -7.900  -0.8552   0.01528   0.00876  -0.0039  1.0000  0.0275  -4.6209   0.0000   0.2381
  -7.800  -0.8461   0.01508   0.00855  -0.0035  1.0000  0.0281  -4.5279   0.0000   0.2386
  -7.700  -0.8369   0.01490   0.00837  -0.0032  1.0000  0.0289  -4.4353   0.0000   0.2390
  -7.600  -0.8275   0.01473   0.00818  -0.0029  1.0000  0.0297  -4.3447   0.0000   0.2394
  -7.500  -0.8181   0.01458   0.00799  -0.0026  1.0000  0.0304  -4.2552   0.0000   0.2399
  -7.400  -0.8091   0.01437   0.00775  -0.0022  1.0000  0.0311  -4.1701   0.0000   0.2404
  -7.300  -0.8012   0.01402   0.00743  -0.0017  1.0000  0.0320  -4.0903   0.0000   0.2411
  -7.200  -0.7922   0.01383   0.00723  -0.0013  1.0000  0.0328  -4.0028   0.0000   0.2416
  -7.100  -0.7831   0.01366   0.00705  -0.0010  1.0000  0.0337  -3.9158   0.0000   0.2422
  -7.000  -0.7739   0.01350   0.00687  -0.0006  1.0000  0.0347  -3.8327   0.0000   0.2427
  -6.900  -0.7645   0.01337   0.00670  -0.0003  1.0000  0.0356  -3.7560   0.0000   0.2433
  -6.800  -0.7564   0.01306   0.00642   0.0002  1.0000  0.0367  -3.6867   0.0000   0.2440
  -6.700  -0.7475   0.01288   0.00624   0.0006  1.0000  0.0379  -3.6102   0.0000   0.2446
  -6.600  -0.7382   0.01274   0.00609   0.0010  1.0000  0.0392  -3.5332   0.0000   0.2452
  -6.500  -0.7288   0.01262   0.00595   0.0013  1.0000  0.0406  -3.4568   0.0000   0.2458
  -6.400  -0.7203   0.01238   0.00573   0.0018  1.0000  0.0422  -3.3855   0.0000   0.2465
  -6.300  -0.7112   0.01222   0.00558   0.0022  1.0000  0.0438  -3.3099   0.0000   0.2472
  -6.200  -0.7019   0.01210   0.00544   0.0025  1.0000  0.0456  -3.2351   0.0000   0.2478
  -6.100  -0.6931   0.01190   0.00525   0.0030  1.0000  0.0475  -3.1638   0.0000   0.2486
  -6.000  -0.6841   0.01174   0.00510   0.0033  1.0000  0.0495  -3.0905   0.0000   0.2493
  -5.900  -0.6748   0.01162   0.00497   0.0037  1.0000  0.0517  -3.0174   0.0000   0.2500
  -5.800  -0.6660   0.01143   0.00480   0.0041  1.0000  0.0542  -2.9468   0.0000   0.2508
  -5.700  -0.6568   0.01130   0.00467   0.0045  1.0000  0.0571  -2.8744   0.0000   0.2515
  -5.600  -0.6479   0.01114   0.00453   0.0049  1.0000  0.0602  -2.8037   0.0000   0.2523
  -5.500  -0.6387   0.01101   0.00441   0.0053  1.0000  0.0639  -2.7324   0.0000   0.2531
  -5.400  -0.6298   0.01084   0.00428   0.0057  1.0000  0.0679  -2.6626   0.0000   0.2539
  -5.300  -0.6207   0.01071   0.00416   0.0061  1.0000  0.0724  -2.5927   0.0000   0.2547
  -5.200  -0.6117   0.01057   0.00404   0.0065  1.0000  0.0776  -2.5293   0.0000   0.2556
  -5.100  -0.6027   0.01041   0.00392   0.0068  1.0000  0.0834  -2.4671   0.0000   0.2565
  -5.000  -0.5937   0.01026   0.00381   0.0072  1.0000  0.0900  -2.4051   0.0000   0.2573
  -4.900  -0.5846   0.01012   0.00370   0.0076  1.0000  0.0977  -2.3434   0.0000   0.2582
  -4.800  -0.5756   0.00997   0.00360   0.0080  1.0000  0.1064  -2.2820   0.0000   0.2591
  -4.700  -0.5665   0.00983   0.00350   0.0083  1.0000  0.1162  -2.2209   0.0000   0.2601
  -4.600  -0.5575   0.00969   0.00341   0.0087  1.0000  0.1268  -2.1602   0.0000   0.2610
  -4.500  -0.5484   0.00954   0.00332   0.0090  1.0000  0.1383  -2.1000   0.0000   0.2619
  -4.400  -0.5393   0.00940   0.00324   0.0093  1.0000  0.1509  -2.0400   0.0000   0.2629
  -4.300  -0.5301   0.00926   0.00316   0.0096  1.0000  0.1643  -1.9804   0.0000   0.2639
  -4.200  -0.5209   0.00911   0.00309   0.0100  1.0000  0.1787  -1.9213   0.0000   0.2648
  -4.100  -0.5117   0.00898   0.00301   0.0102  1.0000  0.1938  -1.8623   0.0000   0.2658
  -4.000  -0.5024   0.00884   0.00295   0.0105  1.0000  0.2093  -1.8092   0.0000   0.2668
  -3.900  -0.4930   0.00871   0.00289   0.0108  1.0000  0.2257  -1.7563   0.0000   0.2678
  -3.800  -0.4837   0.00858   0.00283   0.0111  1.0000  0.2422  -1.7038   0.0000   0.2688
  -3.700  -0.4742   0.00846   0.00278   0.0113  1.0000  0.2593  -1.6514   0.0000   0.2699
  -3.600  -0.4616   0.00832   0.00272   0.0109  0.9994  0.2786  -1.5916   0.0000   0.2696
  -3.500  -0.4466   0.00818   0.00267   0.0099  0.9983  0.3001  -1.5265   0.0000   0.2684
  -3.400  -0.4316   0.00804   0.00261   0.0090  0.9973  0.3214  -1.4620   0.0000   0.2670
  -3.300  -0.4168   0.00789   0.00256   0.0081  0.9960  0.3425  -1.4017   0.0000   0.2657
  -3.200  -0.4019   0.00776   0.00250   0.0072  0.9947  0.3635  -1.3444   0.0000   0.2642
  -3.100  -0.3868   0.00763   0.00246   0.0063  0.9936  0.3845  -1.2873   0.0000   0.2625
  -3.000  -0.3719   0.00751   0.00241   0.0054  0.9923  0.4050  -1.2313   0.0000   0.2608
  -2.900  -0.3573   0.00738   0.00237   0.0046  0.9905  0.4252  -1.1768   0.0000   0.2592
  -2.800  -0.3424   0.00727   0.00233   0.0037  0.9891  0.4451  -1.1251   0.0000   0.2573
  -2.700  -0.3272   0.00715   0.00229   0.0028  0.9878  0.4653  -1.0750   0.0000   0.2549
  -2.600  -0.3122   0.00704   0.00225   0.0019  0.9864  0.4848  -1.0258   0.0000   0.2526
  -2.500  -0.2981   0.00693   0.00220   0.0013  0.9843  0.5034  -0.9789   0.0000   0.2507
  -2.400  -0.2832   0.00682   0.00217   0.0004  0.9826  0.5225  -0.9347   0.0000   0.2480
  -2.300  -0.2678   0.00671   0.00213  -0.0005  0.9813  0.5415  -0.8903   0.0000   0.2446
  -2.200  -0.2521   0.00661   0.00209  -0.0015  0.9802  0.5600  -0.8462   0.0000   0.2406
  -2.100  -0.2388   0.00650   0.00206  -0.0019  0.9773  0.5774  -0.8093   0.0000   0.2385
  -2.000  -0.2246   0.00640   0.00203  -0.0026  0.9751  0.5949  -0.7714   0.0000   0.2351
  -1.900  -0.2100   0.00631   0.00199  -0.0033  0.9733  0.6124  -0.7348   0.0000   0.2310
  -1.800  -0.1972   0.00622   0.00196  -0.0036  0.9700  0.6287  -0.7022   0.0000   0.2284
  -1.600  -0.1706   0.00604   0.00190  -0.0044  0.9643  0.6605  -0.6399   0.0000   0.2210
  -1.500  -0.1593   0.00596   0.00187  -0.0043  0.9596  0.6754  -0.6134   0.0000   0.2197
  -1.400  -0.1467   0.00588   0.00185  -0.0045  0.9560  0.6904  -0.5864   0.0000   0.2161
  -1.300  -0.1356   0.00581   0.00183  -0.0043  0.9511  0.7047  -0.5626   0.0000   0.2145
  -1.200  -0.1239   0.00574   0.00180  -0.0043  0.9466  0.7188  -0.5391   0.0000   0.2117
  -1.100  -0.1131   0.00567   0.00179  -0.0041  0.9411  0.7324  -0.5177   0.0000   0.2103
  -1.000  -0.1019   0.00561   0.00176  -0.0039  0.9360  0.7458  -0.4971   0.0000   0.2079
  -0.900  -0.0916   0.00556   0.00175  -0.0036  0.9295  0.7588  -0.4782   0.0000   0.2071
  -0.800  -0.0809   0.00550   0.00173  -0.0033  0.9239  0.7714  -0.4599   0.0000   0.2055
  -0.700  -0.0708   0.00546   0.00172  -0.0029  0.9167  0.7836  -0.4430   0.0000   0.2051
  -0.600  -0.0605   0.00541   0.00171  -0.0025  0.9098  0.7955  -0.4269   0.0000   0.2045
  -0.500  -0.0503   0.00538   0.00170  -0.0021  0.9027  0.8069  -0.4116   0.0000   0.2039
  -0.400  -0.0403   0.00535   0.00169  -0.0017  0.8944  0.8181  -0.3971   0.0000   0.2037
  -0.300  -0.0301   0.00533   0.00168  -0.0013  0.8864  0.8291  -0.3833   0.0000   0.2030
  -0.200  -0.0201   0.00532   0.00167  -0.0009  0.8782  0.8398  -0.3701   0.0000   0.2029
  -0.100  -0.0101   0.00530   0.00168  -0.0004  0.8688  0.8498  -0.3575   0.0000   0.2035
   0.000  -0.0000   0.00530   0.00168   0.0000  0.8594  0.8594  -0.3453   0.0000   0.6713
   0.100   0.0101   0.00530   0.00168   0.0004  0.8498  0.8688  -0.3575   0.0000   0.2035
   0.200   0.0201   0.00532   0.00167   0.0009  0.8398  0.8781  -0.3701   0.0000   0.2029
   0.300   0.0301   0.00533   0.00168   0.0013  0.8291  0.8864  -0.3833   0.0000   0.2030
   0.400   0.0403   0.00535   0.00169   0.0017  0.8181  0.8944  -0.3971   0.0000   0.2037
   0.500   0.0503   0.00538   0.00170   0.0021  0.8069  0.9027  -0.4116   0.0000   0.2039
   0.600   0.0605   0.00541   0.00171   0.0025  0.7955  0.9097  -0.4269   0.0000   0.2045
   0.700   0.0708   0.00546   0.00172   0.0029  0.7836  0.9167  -0.4430   0.0000   0.2051
   0.800   0.0809   0.00550   0.00173   0.0033  0.7715  0.9239  -0.4599   0.0000   0.2055
   0.900   0.0916   0.00556   0.00175   0.0036  0.7588  0.9295  -0.4782   0.0000   0.2071
   1.000   0.1019   0.00561   0.00176   0.0039  0.7458  0.9360  -0.4971   0.0000   0.2079
   1.100   0.1131   0.00567   0.00179   0.0041  0.7324  0.9411  -0.5176   0.0000   0.2103
   1.200   0.1239   0.00574   0.00180   0.0043  0.7188  0.9466  -0.5391   0.0000   0.2117
   1.300   0.1356   0.00581   0.00183   0.0043  0.7047  0.9511  -0.5626   0.0000   0.2144
   1.400   0.1467   0.00588   0.00185   0.0045  0.6904  0.9560  -0.5864   0.0000   0.2161
   1.500   0.1593   0.00596   0.00187   0.0043  0.6754  0.9596  -0.6134   0.0000   0.2197
   1.600   0.1705   0.00604   0.00190   0.0044  0.6605  0.9643  -0.6399   0.0000   0.2210
   1.800   0.1972   0.00622   0.00196   0.0036  0.6287  0.9700  -0.7022   0.0000   0.2284
   1.900   0.2100   0.00631   0.00199   0.0033  0.6124  0.9732  -0.7348   0.0000   0.2310
   2.000   0.2246   0.00640   0.00203   0.0026  0.5949  0.9751  -0.7713   0.0000   0.2351
   2.100   0.2388   0.00650   0.00206   0.0019  0.5774  0.9773  -0.8093   0.0000   0.2385
   2.200   0.2521   0.00661   0.00209   0.0015  0.5600  0.9802  -0.8462   0.0000   0.2406
   2.300   0.2678   0.00671   0.00213   0.0005  0.5415  0.9813  -0.8903   0.0000   0.2446
   2.400   0.2832   0.00682   0.00216  -0.0004  0.5225  0.9826  -0.9347   0.0000   0.2480
   2.500   0.2981   0.00693   0.00220  -0.0013  0.5034  0.9843  -0.9789   0.0000   0.2507
   2.600   0.3121   0.00704   0.00225  -0.0019  0.4848  0.9864  -1.0258   0.0000   0.2526
   2.700   0.3272   0.00715   0.00229  -0.0028  0.4653  0.9879  -1.0750   0.0000   0.2549
   2.800   0.3424   0.00727   0.00232  -0.0037  0.4451  0.9891  -1.1251   0.0000   0.2573
   2.900   0.3573   0.00738   0.00237  -0.0046  0.4252  0.9906  -1.1768   0.0000   0.2592
   3.000   0.3719   0.00751   0.00241  -0.0054  0.4050  0.9923  -1.2313   0.0000   0.2608
   3.100   0.3868   0.00763   0.00246  -0.0063  0.3845  0.9936  -1.2873   0.0000   0.2625
   3.200   0.4019   0.00776   0.00250  -0.0072  0.3635  0.9947  -1.3444   0.0000   0.2642
   3.300   0.4168   0.00789   0.00256  -0.0081  0.3425  0.9960  -1.4018   0.0000   0.2657
   3.400   0.4316   0.00804   0.00261  -0.0090  0.3214  0.9973  -1.4620   0.0000   0.2670
   3.500   0.4466   0.00817   0.00266  -0.0099  0.3001  0.9983  -1.5265   0.0000   0.2684
   3.600   0.4616   0.00832   0.00272  -0.0109  0.2786  0.9994  -1.5916   0.0000   0.2696
   3.700   0.4742   0.00846   0.00278  -0.0113  0.2593  1.0000  -1.6513   0.0000   0.2698
   3.800   0.4836   0.00858   0.00283  -0.0110  0.2422  1.0000  -1.7036   0.0000   0.2688
   3.900   0.4930   0.00871   0.00288  -0.0108  0.2257  1.0000  -1.7562   0.0000   0.2678
   4.000   0.5024   0.00884   0.00294  -0.0105  0.2093  1.0000  -1.8091   0.0000   0.2668
   4.100   0.5116   0.00898   0.00301  -0.0102  0.1938  1.0000  -1.8622   0.0000   0.2658
   4.200   0.5209   0.00911   0.00309  -0.0099  0.1788  1.0000  -1.9211   0.0000   0.2648
   4.300   0.5300   0.00926   0.00316  -0.0096  0.1643  1.0000  -1.9802   0.0000   0.2638
   4.400   0.5392   0.00940   0.00324  -0.0093  0.1510  1.0000  -2.0399   0.0000   0.2629
   4.500   0.5483   0.00954   0.00332  -0.0090  0.1383  1.0000  -2.0998   0.0000   0.2619
   4.600   0.5574   0.00969   0.00341  -0.0086  0.1268  1.0000  -2.1601   0.0000   0.2610
   4.700   0.5665   0.00983   0.00350  -0.0083  0.1162  1.0000  -2.2208   0.0000   0.2600
   4.800   0.5755   0.00997   0.00360  -0.0079  0.1065  1.0000  -2.2818   0.0000   0.2591
   4.900   0.5846   0.01012   0.00370  -0.0076  0.0977  1.0000  -2.3432   0.0000   0.2582
   5.000   0.5936   0.01026   0.00380  -0.0072  0.0900  1.0000  -2.4050   0.0000   0.2573
   5.100   0.6026   0.01041   0.00392  -0.0068  0.0834  1.0000  -2.4670   0.0000   0.2564
   5.200   0.6116   0.01056   0.00404  -0.0064  0.0776  1.0000  -2.5291   0.0000   0.2556
   5.300   0.6207   0.01070   0.00416  -0.0061  0.0724  1.0000  -2.5926   0.0000   0.2547
   5.400   0.6298   0.01084   0.00428  -0.0057  0.0679  1.0000  -2.6624   0.0000   0.2539
   5.500   0.6387   0.01101   0.00441  -0.0053  0.0639  1.0000  -2.7322   0.0000   0.2531
   5.600   0.6478   0.01113   0.00453  -0.0049  0.0602  1.0000  -2.8036   0.0000   0.2523
   5.700   0.6568   0.01130   0.00467  -0.0045  0.0571  1.0000  -2.8742   0.0000   0.2515
   5.800   0.6660   0.01143   0.00480  -0.0041  0.0542  1.0000  -2.9466   0.0000   0.2508
   5.900   0.6747   0.01162   0.00497  -0.0037  0.0517  1.0000  -3.0172   0.0000   0.2500
   6.000   0.6840   0.01174   0.00510  -0.0033  0.0495  1.0000  -3.0904   0.0000   0.2493
   6.100   0.6930   0.01190   0.00525  -0.0029  0.0475  1.0000  -3.1637   0.0000   0.2486
   6.200   0.7018   0.01210   0.00544  -0.0025  0.0456  1.0000  -3.2350   0.0000   0.2478
   6.300   0.7112   0.01222   0.00558  -0.0022  0.0438  1.0000  -3.3098   0.0000   0.2472
   6.400   0.7203   0.01238   0.00573  -0.0018  0.0422  1.0000  -3.3854   0.0000   0.2465
   6.500   0.7287   0.01262   0.00595  -0.0013  0.0406  1.0000  -3.4567   0.0000   0.2458
   6.600   0.7382   0.01274   0.00609  -0.0010  0.0392  1.0000  -3.5331   0.0000   0.2452
   6.700   0.7474   0.01288   0.00624  -0.0006  0.0379  1.0000  -3.6100   0.0000   0.2446
   6.800   0.7564   0.01306   0.00641  -0.0002  0.0367  1.0000  -3.6866   0.0000   0.2440
   6.900   0.7644   0.01336   0.00670   0.0003  0.0356  1.0000  -3.7559   0.0000   0.2432
   7.000   0.7738   0.01350   0.00687   0.0006  0.0347  1.0000  -3.8326   0.0000   0.2427
   7.100   0.7831   0.01366   0.00705   0.0010  0.0337  1.0000  -3.9157   0.0000   0.2422
   7.200   0.7922   0.01383   0.00723   0.0014  0.0328  1.0000  -4.0027   0.0000   0.2416
   7.300   0.8012   0.01402   0.00743   0.0017  0.0320  1.0000  -4.0903   0.0000   0.2411
   7.400   0.8091   0.01437   0.00775   0.0022  0.0311  1.0000  -4.1701   0.0000   0.2404
   7.500   0.8181   0.01458   0.00799   0.0026  0.0304  1.0000  -4.2551   0.0000   0.2399
   7.600   0.8275   0.01473   0.00818   0.0029  0.0297  1.0000  -4.3446   0.0000   0.2394
   7.700   0.8368   0.01490   0.00837   0.0032  0.0289  1.0000  -4.4353   0.0000   0.2390
   7.800   0.8461   0.01508   0.00855   0.0035  0.0281  1.0000  -4.5279   0.0000   0.2386
   7.900   0.8552   0.01528   0.00876   0.0039  0.0275  1.0000  -4.6209   0.0000   0.2381
   8.000   0.8635   0.01560   0.00907   0.0043  0.0268  1.0000  -4.7073   0.0000   0.2376
   8.100   0.8712   0.01601   0.00949   0.0048  0.0263  1.0000  -4.7853   0.0000   0.2369
   8.200   0.8806   0.01619   0.00971   0.0051  0.0258  1.0000  -4.8764   0.0000   0.2365
   8.300   0.8899   0.01640   0.00996   0.0054  0.0253  1.0000  -4.9665   0.0000   0.2361
   8.400   0.8989   0.01663   0.01022   0.0057  0.0248  1.0000  -5.0570   0.0000   0.2357
   8.500   0.9080   0.01687   0.01047   0.0061  0.0243  1.0000  -5.1489   0.0000   0.2353
   8.600   0.9170   0.01710   0.01072   0.0064  0.0239  1.0000  -5.2422   0.0000   0.2349
   8.700   0.9259   0.01735   0.01098   0.0067  0.0235  1.0000  -5.3364   0.0000   0.2346
   8.800   0.9344   0.01764   0.01127   0.0070  0.0231  1.0000  -5.4293   0.0000   0.2341
   8.900   0.9422   0.01806   0.01170   0.0075  0.0227  1.0000  -5.5137   0.0000   0.2336
   9.000   0.9487   0.01870   0.01236   0.0081  0.0222  1.0000  -5.5811   0.0000   0.2329
   9.100   0.9579   0.01892   0.01263   0.0084  0.0220  1.0000  -5.6741   0.0000   0.2326
   9.200   0.9670   0.01916   0.01292   0.0087  0.0217  1.0000  -5.7660   0.0000   0.2322
   9.300   0.9758   0.01943   0.01323   0.0090  0.0213  1.0000  -5.8580   0.0000   0.2318
   9.400   0.9846   0.01970   0.01354   0.0094  0.0209  1.0000  -5.9509   0.0000   0.2315
   9.500   0.9934   0.01997   0.01384   0.0097  0.0205  1.0000  -6.0459   0.0000   0.2311
   9.600   1.0021   0.02023   0.01413   0.0100  0.0202  1.0000  -6.1433   0.0000   0.2308
   9.700   1.0107   0.02049   0.01441   0.0103  0.0198  1.0000  -6.2427   0.0000   0.2305
   9.800   1.0192   0.02077   0.01470   0.0106  0.0195  1.0000  -6.3449   0.0000   0.2301
   9.900   1.0274   0.02110   0.01504   0.0109  0.0192  1.0000  -6.4525   0.0000   0.2297
  10.000   1.0348   0.02154   0.01550   0.0113  0.0190  1.0000  -6.5525   0.0000   0.2293
  10.100   1.0409   0.02225   0.01623   0.0119  0.0186  1.0000  -6.6336   0.0000   0.2287
  10.200   1.0471   0.02297   0.01701   0.0125  0.0184  1.0000  -6.7109   0.0000   0.2281
  10.300   1.0553   0.02328   0.01739   0.0129  0.0182  1.0000  -6.8129   0.0000   0.2277
  10.400   1.0632   0.02364   0.01782   0.0133  0.0181  1.0000  -6.9120   0.0000   0.2273
  10.500   1.0708   0.02405   0.01829   0.0137  0.0178  1.0000  -7.0088   0.0000   0.2269
  10.600   1.0781   0.02448   0.01878   0.0141  0.0176  1.0000  -7.1040   0.0000   0.2264
  10.700   1.0853   0.02493   0.01930   0.0146  0.0174  1.0000  -7.1984   0.0000   0.2260
  10.800   1.0923   0.02540   0.01982   0.0150  0.0172  1.0000  -7.2925   0.0000   0.2255
  10.900   1.0991   0.02587   0.02035   0.0155  0.0170  1.0000  -7.3869   0.0000   0.2250
  11.000   1.1058   0.02634   0.02088   0.0160  0.0168  1.0000  -7.4812   0.0000   0.2245
  11.100   1.1123   0.02682   0.02141   0.0165  0.0166  1.0000  -7.5754   0.0000   0.2241
  11.200   1.1187   0.02729   0.02194   0.0169  0.0165  1.0000  -7.6703   0.0000   0.2236
  11.300   1.1249   0.02777   0.02246   0.0174  0.0163  1.0000  -7.7659   0.0000   0.2231
  11.400   1.1310   0.02824   0.02298   0.0179  0.0161  1.0000  -7.8620   0.0000   0.2226
  11.500   1.1369   0.02872   0.02350   0.0184  0.0160  1.0000  -7.9579   0.0000   0.2221
  11.600   1.1425   0.02922   0.02404   0.0189  0.0158  1.0000  -8.0529   0.0000   0.2216
  11.700   1.1477   0.02975   0.02460   0.0195  0.0157  1.0000  -8.1456   0.0000   0.2211
  11.800   1.1525   0.03034   0.02522   0.0200  0.0156  1.0000  -8.2336   0.0000   0.2205
  11.900   1.1564   0.03102   0.02594   0.0207  0.0155  1.0000  -8.3133   0.0000   0.2199
  12.000   1.1592   0.03185   0.02683   0.0214  0.0153  1.0000  -8.3787   0.0000   0.2192
  12.100   1.1599   0.03295   0.02801   0.0222  0.0152  1.0000  -8.4206   0.0000   0.2183
  12.200   1.1572   0.03443   0.02960   0.0233  0.0151  1.0000  -8.4218   0.0000   0.2172
  12.300   1.1554   0.03540   0.03067   0.0245  0.0150  1.0000  -8.4470   0.0000   0.2160
  12.400   1.1557   0.03600   0.03136   0.0255  0.0149  1.0000  -8.5002   0.0000   0.2150
  12.500   1.1555   0.03668   0.03212   0.0264  0.0149  1.0000  -8.5480   0.0000   0.2140
  12.600   1.1548   0.03743   0.03296   0.0273  0.0148  1.0000  -8.5904   0.0000   0.2131
  12.700   1.1537   0.03827   0.03388   0.0280  0.0147  1.0000  -8.6273   0.0000   0.2123
  12.800   1.1520   0.03920   0.03490   0.0286  0.0146  1.0000  -8.6588   0.0000   0.2116
  12.900   1.1498   0.04022   0.03601   0.0291  0.0146  1.0000  -8.6847   0.0000   0.2109
  13.000   1.1471   0.04135   0.03723   0.0295  0.0145  1.0000  -8.7051   0.0000   0.2104
  13.100   1.1440   0.04259   0.03856   0.0296  0.0144  1.0000  -8.7200   0.0000   0.2100
  13.200   1.1404   0.04395   0.04001   0.0296  0.0143  1.0000  -8.7292   0.0000   0.2098
  13.300   1.1364   0.04544   0.04159   0.0293  0.0143  1.0000  -8.7325   0.0000   0.2098
  13.400   1.1319   0.04708   0.04332   0.0288  0.0142  1.0000  -8.7295   0.0000   0.2099
  13.500   1.1269   0.04887   0.04520   0.0281  0.0142  1.0000  -8.7194   0.0000   0.2102
  13.600   1.1214   0.05085   0.04727   0.0271  0.0141  1.0000  -8.7020   0.0000   0.2108
  13.700   1.1154   0.05303   0.04953   0.0259  0.0141  1.0000  -8.6762   0.0000   0.2115
  13.800   1.1087   0.05541   0.05200   0.0244  0.0141  1.0000  -8.6410   0.0000   0.2125
  13.900   1.1014   0.05803   0.05471   0.0227  0.0141  1.0000  -8.5957   0.0000   0.2137
  14.000   1.0934   0.06090   0.05767   0.0206  0.0141  1.0000  -8.5391   0.0000   0.2152
  14.100   1.0846   0.06403   0.06089   0.0184  0.0141  1.0000  -8.4700   0.0000   0.2170
  14.200   1.0749   0.06743   0.06438   0.0159  0.0141  1.0000  -8.3875   0.0000   0.2189
  14.300   1.0643   0.07114   0.06816   0.0132  0.0141  1.0000  -8.2905   0.0000   0.2211
  14.400   1.0528   0.07512   0.07223   0.0103  0.0142  1.0000  -8.1780   0.0000   0.2235
  14.500   1.0402   0.07939   0.07657   0.0073  0.0143  1.0000  -8.0492   0.0000   0.2261
  14.600   1.0266   0.08395   0.08121   0.0042  0.0143  1.0000  -7.9034   0.0000   0.2289
  14.700   1.0120   0.08882   0.08615   0.0010  0.0144  1.0000  -7.7388   0.0000   0.2319
  14.800   0.9962   0.09395   0.09135  -0.0023  0.0146  1.0000  -7.5547   0.0000   0.2351
  14.900   0.9790   0.09943   0.09689  -0.0056  0.0147  1.0000  -7.3458   0.0000   0.2384
  15.000   0.9600   0.10539   0.10290  -0.0091  0.0148  1.0000  -7.1026   0.0000   0.2421
  15.100   0.9380   0.11205   0.10961  -0.0128  0.0150  1.0000  -6.8049   0.0000   0.2463
  15.400   0.5224   0.15549   0.15334  -0.0166  0.0241  1.0000  -1.6456   0.0000   0.2720
  15.500   0.5236   0.15644   0.15429  -0.0170  0.0237  1.0000  -1.6509   0.0000   0.2726
  15.600   0.5251   0.15731   0.15517  -0.0173  0.0234  1.0000  -1.6633   0.0000   0.2730
  15.700   0.5269   0.15812   0.15597  -0.0176  0.0232  1.0000  -1.6808   0.0000   0.2734
  15.800   0.5289   0.15895   0.15681  -0.0179  0.0230  1.0000  -1.7010   0.0000   0.2737
  15.900   0.5311   0.15971   0.15757  -0.0181  0.0229  1.0000  -1.7248   0.0000   0.2738
  16.000   0.5338   0.16042   0.15829  -0.0183  0.0227  1.0000  -1.7561   0.0000   0.2738
  16.100   0.5370   0.16109   0.15895  -0.0183  0.0226  1.0000  -1.7967   0.0000   0.2736
  16.200   0.5403   0.16172   0.15959  -0.0183  0.0225  1.0000  -1.8404   0.0000   0.2732
  16.300   0.5435   0.16240   0.16027  -0.0183  0.0224  1.0000  -1.8874   0.0000   0.2728
  16.400   0.5460   0.16342   0.16129  -0.0182  0.0223  1.0000  -1.9203   0.0000   0.2724
  16.500   0.5444   0.16512   0.16299  -0.0191  0.0222  1.0000  -1.8537   0.0000   0.2741
  16.600   0.5424   0.16688   0.16475  -0.0201  0.0222  1.0000  -1.7815   0.0000   0.2762
  16.700   0.5315   0.17020   0.16806  -0.0227  0.0216  1.0000  -1.5244   0.0000   0.2824
  16.800   0.5313   0.17165   0.16952  -0.0235  0.0209  1.0000  -1.4871   0.0000   0.2838
  16.900   0.5322   0.17279   0.17066  -0.0240  0.0205  1.0000  -1.4791   0.0000   0.2847
  17.000   0.5334   0.17388   0.17175  -0.0245  0.0202  1.0000  -1.4781   0.0000   0.2854
  17.100   0.5347   0.17491   0.17278  -0.0249  0.0199  1.0000  -1.4815   0.0000   0.2861
  17.200   0.5362   0.17590   0.17377  -0.0254  0.0197  1.0000  -1.4888   0.0000   0.2867
  17.300   0.5379   0.17685   0.17472  -0.0258  0.0195  1.0000  -1.4997   0.0000   0.2872
  17.400   0.5397   0.17776   0.17563  -0.0262  0.0193  1.0000  -1.5145   0.0000   0.2877
  17.500   0.5416   0.17863   0.17651  -0.0265  0.0191  1.0000  -1.5334   0.0000   0.2880
  17.600   0.5438   0.17947   0.17735  -0.0268  0.0190  1.0000  -1.5567   0.0000   0.2883
  17.700   0.5462   0.18029   0.17817  -0.0271  0.0189  1.0000  -1.5855   0.0000   0.2884
  17.800   0.5489   0.18107   0.17895  -0.0273  0.0188  1.0000  -1.6208   0.0000   0.2884
  17.900   0.5521   0.18183   0.17971  -0.0274  0.0187  1.0000  -1.6652   0.0000   0.2881
  18.000   0.5560   0.18260   0.18049  -0.0273  0.0186  1.0000  -1.7217   0.0000   0.2874
  18.100   0.5594   0.18376   0.18165  -0.0272  0.0185  1.0000  -1.7703   0.0000   0.2867
  18.200   0.5590   0.18522   0.18311  -0.0280  0.0184  1.0000  -1.7236   0.0000   0.2882
  18.300   0.5583   0.18669   0.18458  -0.0288  0.0184  1.0000  -1.6697   0.0000   0.2898
  18.400   0.5559   0.18835   0.18623  -0.0300  0.0183  1.0000  -1.5821   0.0000   0.2922
  18.500   0.5513   0.19069   0.18858  -0.0317  0.0179  1.0000  -1.4124   0.0000   0.2961
  18.600   0.5520   0.19208   0.18997  -0.0324  0.0174  1.0000  -1.3793   0.0000   0.2972
  18.700   0.5533   0.19323   0.19112  -0.0329  0.0170  1.0000  -1.3709   0.0000   0.2980
  18.800   0.5548   0.19429   0.19219  -0.0334  0.0167  1.0000  -1.3695   0.0000   0.2986
  18.900   0.5564   0.19533   0.19322  -0.0339  0.0164  1.0000  -1.3728   0.0000   0.2992
  19.000   0.5580   0.19632   0.19422  -0.0344  0.0161  1.0000  -1.3800   0.0000   0.2998
  19.100   0.5598   0.19728   0.19518  -0.0348  0.0159  1.0000  -1.3904   0.0000   0.3002
  19.200   0.5617   0.19822   0.19613  -0.0352  0.0158  1.0000  -1.4032   0.0000   0.3007
  19.300   0.5635   0.19916   0.19707  -0.0357  0.0156  1.0000  -1.4171   0.0000   0.3011
  19.400   0.5655   0.20006   0.19797  -0.0361  0.0155  1.0000  -1.4336   0.0000   0.3014
  19.500   0.5676   0.20096   0.19888  -0.0364  0.0154  1.0000  -1.4539   0.0000   0.3017
  19.600   0.5698   0.20183   0.19975  -0.0368  0.0153  1.0000  -1.4788   0.0000   0.3019
  19.700   0.5722   0.20269   0.20060  -0.0370  0.0152  1.0000  -1.5095   0.0000   0.3019
  19.800   0.5751   0.20354   0.20147  -0.0372  0.0152  1.0000  -1.5483   0.0000   0.3017
  19.900   0.5788   0.20447   0.20240  -0.0372  0.0151  1.0000  -1.6017   0.0000   0.3011
  20.000   0.5814   0.20582   0.20374  -0.0373  0.0150  1.0000  -1.6218   0.0000   0.3009


