xflr5 v6.47

 Calculated polar for: NACA 0010

 1 1 Reynolds number fixed          Mach number fixed         

 xtrf =   1.000 (top)        1.000 (bottom)
 Mach =   0.000     Re =     1.000 e 6     Ncrit =   9.000

  alpha     CL        CD       CDp       Cm    Top Xtr Bot Xtr   Cpmin    Chinge    XCp    
 ------- -------- --------- --------- -------- ------- ------- -------- --------- ---------
 -10.000  -1.0644   0.01678   0.01127  -0.0072  1.0000  0.0147  -6.9507   0.0000   0.2334
  -9.900  -1.0551   0.01659   0.01106  -0.0069  1.0000  0.0148  -6.8323   0.0000   0.2337
  -9.800  -1.0456   0.01642   0.01086  -0.0067  1.0000  0.0149  -6.7223   0.0000   0.2340
  -9.700  -1.0372   0.01610   0.01051  -0.0063  1.0000  0.0151  -6.6260   0.0000   0.2345
  -9.600  -1.0301   0.01562   0.01000  -0.0058  1.0000  0.0155  -6.5435   0.0000   0.2351
  -9.500  -1.0215   0.01532   0.00968  -0.0054  1.0000  0.0158  -6.4438   0.0000   0.2355
  -9.400  -1.0125   0.01509   0.00945  -0.0052  1.0000  0.0161  -6.3381   0.0000   0.2358
  -9.300  -1.0031   0.01490   0.00924  -0.0049  1.0000  0.0164  -6.2302   0.0000   0.2362
  -9.200  -0.9936   0.01473   0.00905  -0.0047  1.0000  0.0167  -6.1224   0.0000   0.2365
  -9.100  -0.9841   0.01456   0.00887  -0.0044  1.0000  0.0170  -6.0148   0.0000   0.2368
  -9.000  -0.9745   0.01440   0.00870  -0.0042  1.0000  0.0173  -5.9078   0.0000   0.2371
  -8.900  -0.9649   0.01425   0.00853  -0.0040  1.0000  0.0176  -5.8015   0.0000   0.2374
  -8.800  -0.9552   0.01410   0.00837  -0.0037  1.0000  0.0179  -5.6956   0.0000   0.2377
  -8.700  -0.9454   0.01397   0.00822  -0.0035  1.0000  0.0182  -5.5896   0.0000   0.2380
  -8.600  -0.9355   0.01386   0.00809  -0.0033  1.0000  0.0184  -5.4834   0.0000   0.2383
  -8.500  -0.9275   0.01350   0.00770  -0.0028  1.0000  0.0190  -5.3979   0.0000   0.2389
  -8.400  -0.9186   0.01325   0.00744  -0.0025  1.0000  0.0195  -5.3022   0.0000   0.2394
  -8.300  -0.9093   0.01307   0.00726  -0.0022  1.0000  0.0199  -5.2018   0.0000   0.2398
  -8.200  -0.8998   0.01292   0.00710  -0.0019  1.0000  0.0203  -5.1006   0.0000   0.2402
  -8.100  -0.8903   0.01278   0.00695  -0.0016  1.0000  0.0207  -5.0004   0.0000   0.2406
  -8.000  -0.8808   0.01264   0.00680  -0.0013  1.0000  0.0212  -4.9013   0.0000   0.2410
  -7.900  -0.8712   0.01251   0.00665  -0.0010  1.0000  0.0216  -4.8031   0.0000   0.2414
  -7.800  -0.8616   0.01239   0.00652  -0.0008  1.0000  0.0220  -4.7051   0.0000   0.2418
  -7.700  -0.8521   0.01227   0.00638  -0.0005  1.0000  0.0223  -4.6083   0.0000   0.2423
  -7.600  -0.8437   0.01199   0.00610   0.0000  1.0000  0.0231  -4.5226   0.0000   0.2430
  -7.500  -0.8346   0.01183   0.00593   0.0004  1.0000  0.0238  -4.4289   0.0000   0.2435
  -7.400  -0.8252   0.01170   0.00580   0.0007  1.0000  0.0244  -4.3341   0.0000   0.2440
  -7.300  -0.8158   0.01158   0.00568   0.0010  1.0000  0.0250  -4.2396   0.0000   0.2445
  -7.200  -0.8063   0.01147   0.00556   0.0014  1.0000  0.0257  -4.1457   0.0000   0.2450
  -7.100  -0.7967   0.01138   0.00545   0.0017  1.0000  0.0263  -4.0517   0.0000   0.2455
  -7.000  -0.7878   0.01119   0.00526   0.0021  1.0000  0.0272  -3.9654   0.0000   0.2462
  -6.900  -0.7787   0.01104   0.00512   0.0025  1.0000  0.0282  -3.8839   0.0000   0.2468
  -6.800  -0.7694   0.01092   0.00500   0.0028  1.0000  0.0291  -3.8015   0.0000   0.2474
  -6.700  -0.7600   0.01082   0.00489   0.0032  1.0000  0.0300  -3.7199   0.0000   0.2479
  -6.600  -0.7505   0.01073   0.00479   0.0035  1.0000  0.0308  -3.6388   0.0000   0.2485
  -6.500  -0.7417   0.01056   0.00463   0.0039  1.0000  0.0320  -3.5627   0.0000   0.2493
  -6.400  -0.7325   0.01043   0.00451   0.0043  1.0000  0.0332  -3.4840   0.0000   0.2499
  -6.300  -0.7233   0.01033   0.00441   0.0047  1.0000  0.0344  -3.4051   0.0000   0.2506
  -6.200  -0.7139   0.01025   0.00431   0.0050  1.0000  0.0355  -3.3265   0.0000   0.2513
  -6.100  -0.7049   0.01010   0.00418   0.0054  1.0000  0.0371  -3.2512   0.0000   0.2521
  -6.000  -0.6958   0.00999   0.00408   0.0058  1.0000  0.0387  -3.1745   0.0000   0.2528
  -5.900  -0.6865   0.00990   0.00398   0.0062  1.0000  0.0403  -3.0978   0.0000   0.2535
  -5.800  -0.6774   0.00978   0.00387   0.0066  1.0000  0.0423  -3.0231   0.0000   0.2543
  -5.700  -0.6683   0.00967   0.00378   0.0070  1.0000  0.0445  -2.9482   0.0000   0.2551
  -5.600  -0.6590   0.00959   0.00370   0.0074  1.0000  0.0465  -2.8735   0.0000   0.2559
  -5.500  -0.6500   0.00947   0.00360   0.0077  1.0000  0.0492  -2.8005   0.0000   0.2567
  -5.400  -0.6407   0.00938   0.00352   0.0081  1.0000  0.0518  -2.7271   0.0000   0.2576
  -5.300  -0.6316   0.00927   0.00342   0.0085  1.0000  0.0549  -2.6552   0.0000   0.2584
  -5.200  -0.6224   0.00918   0.00335   0.0089  1.0000  0.0580  -2.5838   0.0000   0.2593
  -5.100  -0.6118   0.00907   0.00326   0.0089  0.9998  0.0622  -2.5149   0.0000   0.2597
  -5.000  -0.5978   0.00894   0.00316   0.0082  0.9992  0.0673  -2.4355   0.0000   0.2590
  -4.900  -0.5838   0.00882   0.00307   0.0076  0.9986  0.0733  -2.3569   0.0000   0.2582
  -4.800  -0.5698   0.00870   0.00299   0.0069  0.9979  0.0801  -2.2789   0.0000   0.2574
  -4.700  -0.5557   0.00857   0.00290   0.0062  0.9973  0.0876  -2.2018   0.0000   0.2565
  -4.600  -0.5420   0.00845   0.00281   0.0055  0.9965  0.0957  -2.1263   0.0000   0.2557
  -4.500  -0.5281   0.00832   0.00273   0.0049  0.9956  0.1047  -2.0514   0.0000   0.2548
  -4.400  -0.5142   0.00818   0.00265   0.0042  0.9948  0.1151  -1.9770   0.0000   0.2537
  -4.200  -0.4860   0.00791   0.00249   0.0028  0.9934  0.1390  -1.8318   0.0000   0.2514
  -4.100  -0.4720   0.00778   0.00241   0.0021  0.9926  0.1520  -1.7663   0.0000   0.2502
  -4.000  -0.4587   0.00764   0.00234   0.0016  0.9913  0.1653  -1.7031   0.0000   0.2491
  -3.900  -0.4450   0.00750   0.00226   0.0009  0.9902  0.1804  -1.6398   0.0000   0.2479
  -3.800  -0.4310   0.00736   0.00219   0.0003  0.9892  0.1960  -1.5765   0.0000   0.2464
  -3.700  -0.4169   0.00722   0.00212  -0.0005  0.9884  0.2123  -1.5134   0.0000   0.2448
  -3.600  -0.4026   0.00708   0.00206  -0.0012  0.9876  0.2288  -1.4506   0.0000   0.2429
  -3.500  -0.3883   0.00695   0.00199  -0.0020  0.9868  0.2464  -1.3914   0.0000   0.2409
  -3.400  -0.3753   0.00682   0.00193  -0.0024  0.9850  0.2627  -1.3383   0.0000   0.2395
  -3.300  -0.3620   0.00669   0.00187  -0.0029  0.9834  0.2801  -1.2851   0.0000   0.2379
  -3.200  -0.3484   0.00657   0.00182  -0.0035  0.9819  0.2973  -1.2319   0.0000   0.2360
  -3.100  -0.3348   0.00644   0.00176  -0.0041  0.9806  0.3146  -1.1791   0.0000   0.2339
  -3.000  -0.3228   0.00633   0.00171  -0.0043  0.9778  0.3313  -1.1319   0.0000   0.2328
  -2.900  -0.3104   0.00623   0.00167  -0.0046  0.9752  0.3476  -1.0869   0.0000   0.2314
  -2.800  -0.2976   0.00611   0.00162  -0.0049  0.9731  0.3645  -1.0417   0.0000   0.2295
  -2.700  -0.2861   0.00601   0.00158  -0.0050  0.9695  0.3804  -0.9995   0.0000   0.2288
  -2.600  -0.2744   0.00592   0.00153  -0.0051  0.9662  0.3965  -0.9581   0.0000   0.2277
  -2.500  -0.2627   0.00582   0.00149  -0.0052  0.9629  0.4125  -0.9195   0.0000   0.2265
  -2.400  -0.2518   0.00574   0.00146  -0.0051  0.9584  0.4278  -0.8829   0.0000   0.2261
  -2.200  -0.2300   0.00557   0.00139  -0.0049  0.9494  0.4582  -0.8126   0.0000   0.2250
  -2.100  -0.2192   0.00549   0.00135  -0.0048  0.9449  0.4734  -0.7798   0.0000   0.2246
  -2.000  -0.2088   0.00541   0.00132  -0.0045  0.9390  0.4882  -0.7479   0.0000   0.2246
  -1.900  -0.1983   0.00534   0.00129  -0.0043  0.9337  0.5031  -0.7184   0.0000   0.2245
  -1.800  -0.1879   0.00527   0.00126  -0.0041  0.9274  0.5177  -0.6893   0.0000   0.2246
  -1.700  -0.1775   0.00521   0.00123  -0.0039  0.9212  0.5323  -0.6618   0.0000   0.2246
  -1.600  -0.1671   0.00515   0.00120  -0.0036  0.9145  0.5468  -0.6352   0.0000   0.2248
  -1.500  -0.1567   0.00509   0.00118  -0.0034  0.9073  0.5612  -0.6099   0.0000   0.2248
  -1.400  -0.1464   0.00504   0.00115  -0.0032  0.9002  0.5755  -0.5855   0.0000   0.2250
  -1.300  -0.1360   0.00499   0.00113  -0.0029  0.8922  0.5897  -0.5625   0.0000   0.2251
  -1.200  -0.1255   0.00494   0.00111  -0.0027  0.8841  0.6038  -0.5401   0.0000   0.2252
  -1.100  -0.1151   0.00490   0.00109  -0.0024  0.8759  0.6177  -0.5191   0.0000   0.2253
  -1.000  -0.1047   0.00486   0.00107  -0.0022  0.8670  0.6316  -0.4992   0.0000   0.2255
  -0.900  -0.0942   0.00483   0.00105  -0.0020  0.8577  0.6453  -0.4801   0.0000   0.2254
  -0.700  -0.0733   0.00477   0.00102  -0.0015  0.8386  0.6725  -0.4446   0.0000   0.2257
  -0.600  -0.0629   0.00475   0.00101  -0.0013  0.8284  0.6857  -0.4284   0.0000   0.2259
  -0.500  -0.0524   0.00473   0.00100  -0.0011  0.8178  0.6989  -0.4128   0.0000   0.2258
  -0.400  -0.0419   0.00471   0.00099  -0.0009  0.8070  0.7117  -0.3980   0.0000   0.2258
  -0.300  -0.0315   0.00470   0.00099  -0.0007  0.7961  0.7243  -0.3839   0.0000   0.2259
  -0.200  -0.0210   0.00469   0.00098  -0.0004  0.7848  0.7368  -0.3705   0.0000   0.2263
   0.000   0.0000   0.00469   0.00098  -0.0000  0.7612  0.7612  -0.3452   0.0000   0.4692
   0.200   0.0210   0.00469   0.00098   0.0004  0.7368  0.7848  -0.3705   0.0000   0.2263
   0.300   0.0315   0.00470   0.00099   0.0007  0.7243  0.7961  -0.3839   0.0000   0.2259
   0.400   0.0419   0.00471   0.00099   0.0009  0.7117  0.8070  -0.3980   0.0000   0.2258
   0.500   0.0524   0.00473   0.00100   0.0011  0.6988  0.8178  -0.4128   0.0000   0.2258
   0.600   0.0629   0.00475   0.00101   0.0013  0.6857  0.8284  -0.4284   0.0000   0.2259
   0.700   0.0733   0.00477   0.00102   0.0015  0.6725  0.8386  -0.4446   0.0000   0.2257
   0.900   0.0942   0.00483   0.00105   0.0020  0.6453  0.8577  -0.4801   0.0000   0.2254
   1.000   0.1047   0.00486   0.00107   0.0022  0.6316  0.8670  -0.4992   0.0000   0.2255
   1.100   0.1151   0.00490   0.00109   0.0024  0.6178  0.8759  -0.5191   0.0000   0.2253
   1.200   0.1255   0.00494   0.00111   0.0027  0.6038  0.8841  -0.5402   0.0000   0.2252
   1.300   0.1360   0.00499   0.00113   0.0029  0.5897  0.8922  -0.5625   0.0000   0.2251
   1.400   0.1464   0.00504   0.00115   0.0032  0.5755  0.9002  -0.5855   0.0000   0.2250
   1.500   0.1567   0.00509   0.00118   0.0034  0.5612  0.9073  -0.6099   0.0000   0.2248
   1.600   0.1672   0.00515   0.00120   0.0036  0.5468  0.9145  -0.6352   0.0000   0.2248
   1.700   0.1775   0.00521   0.00123   0.0039  0.5323  0.9212  -0.6618   0.0000   0.2246
   1.800   0.1879   0.00527   0.00126   0.0041  0.5177  0.9274  -0.6893   0.0000   0.2246
   1.900   0.1983   0.00534   0.00129   0.0043  0.5031  0.9337  -0.7184   0.0000   0.2245
   2.000   0.2088   0.00541   0.00132   0.0045  0.4882  0.9390  -0.7479   0.0000   0.2246
   2.100   0.2192   0.00549   0.00135   0.0048  0.4734  0.9449  -0.7798   0.0000   0.2246
   2.200   0.2300   0.00557   0.00139   0.0049  0.4582  0.9494  -0.8126   0.0000   0.2250
   2.400   0.2518   0.00574   0.00146   0.0051  0.4278  0.9584  -0.8829   0.0000   0.2261
   2.500   0.2627   0.00582   0.00149   0.0052  0.4125  0.9629  -0.9195   0.0000   0.2265
   2.600   0.2744   0.00592   0.00153   0.0051  0.3965  0.9662  -0.9581   0.0000   0.2277
   2.700   0.2861   0.00601   0.00158   0.0050  0.3804  0.9696  -0.9995   0.0000   0.2288
   2.800   0.2976   0.00611   0.00162   0.0049  0.3645  0.9731  -1.0417   0.0000   0.2295
   2.900   0.3104   0.00623   0.00167   0.0046  0.3476  0.9752  -1.0869   0.0000   0.2314
   3.000   0.3228   0.00633   0.00171   0.0043  0.3313  0.9778  -1.1319   0.0000   0.2328
   3.100   0.3348   0.00644   0.00176   0.0041  0.3146  0.9806  -1.1791   0.0000   0.2339
   3.200   0.3484   0.00657   0.00182   0.0035  0.2973  0.9819  -1.2319   0.0000   0.2360
   3.300   0.3620   0.00669   0.00187   0.0029  0.2801  0.9834  -1.2851   0.0000   0.2379
   3.400   0.3753   0.00682   0.00193   0.0024  0.2627  0.9850  -1.3383   0.0000   0.2395
   3.500   0.3883   0.00695   0.00199   0.0020  0.2464  0.9868  -1.3914   0.0000   0.2409
   3.600   0.4026   0.00708   0.00206   0.0012  0.2288  0.9876  -1.4506   0.0000   0.2429
   3.700   0.4169   0.00722   0.00212   0.0005  0.2123  0.9884  -1.5134   0.0000   0.2448
   3.800   0.4310   0.00736   0.00219  -0.0003  0.1960  0.9892  -1.5765   0.0000   0.2464
   3.900   0.4450   0.00750   0.00226  -0.0009  0.1804  0.9902  -1.6398   0.0000   0.2479
   4.000   0.4587   0.00764   0.00234  -0.0016  0.1653  0.9913  -1.7031   0.0000   0.2492
   4.100   0.4720   0.00778   0.00241  -0.0021  0.1520  0.9926  -1.7663   0.0000   0.2502
   4.200   0.4860   0.00791   0.00249  -0.0028  0.1390  0.9934  -1.8319   0.0000   0.2514
   4.400   0.5142   0.00818   0.00265  -0.0042  0.1151  0.9948  -1.9771   0.0000   0.2538
   4.500   0.5281   0.00832   0.00273  -0.0049  0.1047  0.9956  -2.0514   0.0000   0.2548
   4.600   0.5420   0.00845   0.00281  -0.0055  0.0957  0.9965  -2.1263   0.0000   0.2557
   4.700   0.5557   0.00857   0.00290  -0.0062  0.0876  0.9973  -2.2018   0.0000   0.2565
   4.800   0.5698   0.00870   0.00299  -0.0069  0.0801  0.9979  -2.2790   0.0000   0.2574
   4.900   0.5838   0.00882   0.00307  -0.0076  0.0733  0.9986  -2.3569   0.0000   0.2582
   5.000   0.5978   0.00894   0.00316  -0.0082  0.0673  0.9992  -2.4356   0.0000   0.2590
   5.100   0.6118   0.00906   0.00326  -0.0089  0.0621  0.9998  -2.5149   0.0000   0.2597
   5.200   0.6223   0.00918   0.00335  -0.0088  0.0580  1.0000  -2.5836   0.0000   0.2593
   5.300   0.6316   0.00927   0.00342  -0.0085  0.0549  1.0000  -2.6550   0.0000   0.2584
   5.400   0.6407   0.00938   0.00352  -0.0081  0.0518  1.0000  -2.7269   0.0000   0.2575
   5.500   0.6499   0.00947   0.00360  -0.0077  0.0492  1.0000  -2.8003   0.0000   0.2567
   5.600   0.6589   0.00959   0.00370  -0.0073  0.0465  1.0000  -2.8733   0.0000   0.2559
   5.700   0.6682   0.00967   0.00378  -0.0070  0.0445  1.0000  -2.9480   0.0000   0.2551
   5.800   0.6774   0.00978   0.00387  -0.0066  0.0423  1.0000  -3.0229   0.0000   0.2543
   5.900   0.6864   0.00990   0.00398  -0.0062  0.0403  1.0000  -3.0976   0.0000   0.2535
   6.000   0.6957   0.00999   0.00408  -0.0058  0.0387  1.0000  -3.1743   0.0000   0.2528
   6.100   0.7049   0.01010   0.00418  -0.0054  0.0371  1.0000  -3.2510   0.0000   0.2520
   6.200   0.7138   0.01025   0.00431  -0.0050  0.0355  1.0000  -3.3263   0.0000   0.2513
   6.300   0.7232   0.01033   0.00440  -0.0047  0.0344  1.0000  -3.4049   0.0000   0.2506
   6.400   0.7325   0.01043   0.00451  -0.0043  0.0332  1.0000  -3.4838   0.0000   0.2499
   6.500   0.7416   0.01056   0.00463  -0.0039  0.0320  1.0000  -3.5625   0.0000   0.2493
   6.600   0.7505   0.01073   0.00479  -0.0035  0.0308  1.0000  -3.6386   0.0000   0.2485
   6.700   0.7600   0.01082   0.00489  -0.0031  0.0300  1.0000  -3.7197   0.0000   0.2479
   6.800   0.7694   0.01092   0.00500  -0.0028  0.0291  1.0000  -3.8014   0.0000   0.2473
   6.900   0.7787   0.01104   0.00512  -0.0025  0.0282  1.0000  -3.8837   0.0000   0.2468
   7.000   0.7878   0.01119   0.00526  -0.0021  0.0272  1.0000  -3.9652   0.0000   0.2462
   7.100   0.7967   0.01138   0.00545  -0.0017  0.0263  1.0000  -4.0516   0.0000   0.2455
   7.200   0.8063   0.01147   0.00556  -0.0013  0.0257  1.0000  -4.1455   0.0000   0.2450
   7.300   0.8158   0.01158   0.00567  -0.0010  0.0250  1.0000  -4.2395   0.0000   0.2445
   7.400   0.8252   0.01169   0.00580  -0.0007  0.0244  1.0000  -4.3340   0.0000   0.2440
   7.500   0.8346   0.01183   0.00593  -0.0004  0.0238  1.0000  -4.4288   0.0000   0.2435
   7.600   0.8437   0.01199   0.00609  -0.0000  0.0231  1.0000  -4.5225   0.0000   0.2430
   7.700   0.8521   0.01227   0.00638   0.0005  0.0223  1.0000  -4.6082   0.0000   0.2423
   7.800   0.8616   0.01239   0.00652   0.0008  0.0220  1.0000  -4.7050   0.0000   0.2418
   7.900   0.8712   0.01251   0.00665   0.0011  0.0216  1.0000  -4.8030   0.0000   0.2414
   8.000   0.8807   0.01264   0.00680   0.0013  0.0212  1.0000  -4.9013   0.0000   0.2410
   8.100   0.8903   0.01278   0.00695   0.0016  0.0207  1.0000  -5.0003   0.0000   0.2406
   8.200   0.8998   0.01292   0.00710   0.0019  0.0203  1.0000  -5.1006   0.0000   0.2402
   8.300   0.9093   0.01307   0.00726   0.0022  0.0199  1.0000  -5.2018   0.0000   0.2398
   8.400   0.9186   0.01325   0.00744   0.0025  0.0195  1.0000  -5.3022   0.0000   0.2394
   8.500   0.9275   0.01350   0.00770   0.0028  0.0190  1.0000  -5.3980   0.0000   0.2389
   8.600   0.9355   0.01386   0.00809   0.0033  0.0184  1.0000  -5.4834   0.0000   0.2383
   8.700   0.9454   0.01397   0.00822   0.0035  0.0182  1.0000  -5.5897   0.0000   0.2380
   8.800   0.9552   0.01410   0.00837   0.0037  0.0179  1.0000  -5.6957   0.0000   0.2377
   8.900   0.9649   0.01425   0.00853   0.0040  0.0176  1.0000  -5.8016   0.0000   0.2374
   9.000   0.9746   0.01440   0.00870   0.0042  0.0173  1.0000  -5.9080   0.0000   0.2371
   9.100   0.9841   0.01456   0.00887   0.0044  0.0170  1.0000  -6.0150   0.0000   0.2368
   9.200   0.9937   0.01473   0.00905   0.0047  0.0167  1.0000  -6.1226   0.0000   0.2365
   9.300   1.0031   0.01490   0.00924   0.0049  0.0164  1.0000  -6.2304   0.0000   0.2362
   9.400   1.0125   0.01509   0.00945   0.0052  0.0161  1.0000  -6.3383   0.0000   0.2358
   9.500   1.0216   0.01532   0.00968   0.0054  0.0158  1.0000  -6.4440   0.0000   0.2355
   9.600   1.0301   0.01562   0.01000   0.0058  0.0155  1.0000  -6.5437   0.0000   0.2351
   9.700   1.0372   0.01610   0.01052   0.0063  0.0151  1.0000  -6.6262   0.0000   0.2345
   9.800   1.0456   0.01642   0.01086   0.0067  0.0149  1.0000  -6.7226   0.0000   0.2340
   9.900   1.0551   0.01659   0.01106   0.0069  0.0148  1.0000  -6.8327   0.0000   0.2337
  10.000   1.0645   0.01678   0.01127   0.0072  0.0147  1.0000  -6.9511   0.0000   0.2335
  10.100   1.0737   0.01698   0.01151   0.0074  0.0145  1.0000  -7.0710   0.0000   0.2331
  10.200   1.0828   0.01720   0.01175   0.0077  0.0143  1.0000  -7.1906   0.0000   0.2328
  10.300   1.0918   0.01742   0.01201   0.0080  0.0141  1.0000  -7.3103   0.0000   0.2325
  10.400   1.1007   0.01766   0.01227   0.0083  0.0139  1.0000  -7.4304   0.0000   0.2322
  10.500   1.1096   0.01789   0.01253   0.0085  0.0137  1.0000  -7.5512   0.0000   0.2318
  10.600   1.1184   0.01813   0.01279   0.0088  0.0136  1.0000  -7.6728   0.0000   0.2315
  10.700   1.1272   0.01837   0.01306   0.0091  0.0134  1.0000  -7.7953   0.0000   0.2312
  10.800   1.1359   0.01862   0.01332   0.0094  0.0132  1.0000  -7.9185   0.0000   0.2308
  10.900   1.1445   0.01887   0.01359   0.0097  0.0130  1.0000  -8.0421   0.0000   0.2305
  11.000   1.1530   0.01913   0.01388   0.0100  0.0129  1.0000  -8.1656   0.0000   0.2302
  11.100   1.1612   0.01941   0.01418   0.0104  0.0127  1.0000  -8.2876   0.0000   0.2298
  11.200   1.1690   0.01975   0.01454   0.0107  0.0126  1.0000  -8.4058   0.0000   0.2294
  11.300   1.1761   0.02015   0.01497   0.0112  0.0124  1.0000  -8.5164   0.0000   0.2289
  11.400   1.1819   0.02070   0.01555   0.0118  0.0122  1.0000  -8.6127   0.0000   0.2283
  11.500   1.1851   0.02155   0.01648   0.0127  0.0120  1.0000  -8.6763   0.0000   0.2275
  11.600   1.1916   0.02201   0.01699   0.0132  0.0119  1.0000  -8.7803   0.0000   0.2269
  11.700   1.1999   0.02224   0.01725   0.0135  0.0118  1.0000  -8.9075   0.0000   0.2266
  11.800   1.2081   0.02249   0.01753   0.0138  0.0117  1.0000  -9.0337   0.0000   0.2263
  11.900   1.2160   0.02275   0.01784   0.0142  0.0116  1.0000  -9.1586   0.0000   0.2259
  12.000   1.2237   0.02304   0.01816   0.0145  0.0115  1.0000  -9.2819   0.0000   0.2255
  12.100   1.2311   0.02334   0.01850   0.0149  0.0114  1.0000  -9.4035   0.0000   0.2252
  12.200   1.2383   0.02367   0.01886   0.0154  0.0113  1.0000  -9.5232   0.0000   0.2247
  12.300   1.2452   0.02401   0.01925   0.0158  0.0112  1.0000  -9.6410   0.0000   0.2243
  12.400   1.2518   0.02438   0.01965   0.0163  0.0111  1.0000  -9.7565   0.0000   0.2238
  12.500   1.2581   0.02476   0.02008   0.0168  0.0110  1.0000  -9.8694   0.0000   0.2234
  12.600   1.2641   0.02516   0.02052   0.0173  0.0109  1.0000  -9.9809   0.0000   0.2229
  12.700   1.2699   0.02556   0.02096   0.0178  0.0108  1.0000  -10.0915   0.0000   0.2224
  12.800   1.2755   0.02597   0.02141   0.0183  0.0107  1.0000  -10.2012   0.0000   0.2218
  12.900   1.2809   0.02638   0.02186   0.0189  0.0106  1.0000  -10.3099   0.0000   0.2213
  13.000   1.2859   0.02680   0.02232   0.0195  0.0105  1.0000  -10.4172   0.0000   0.2207
  13.100   1.2901   0.02722   0.02278   0.0202  0.0104  1.0000  -10.5188   0.0000   0.2201
  13.200   1.2936   0.02764   0.02324   0.0211  0.0103  1.0000  -10.6158   0.0000   0.2193
  13.300   1.2967   0.02808   0.02371   0.0219  0.0103  1.0000  -10.7106   0.0000   0.2185
  13.400   1.2996   0.02855   0.02421   0.0227  0.0102  1.0000  -10.8036   0.0000   0.2178
  13.500   1.3023   0.02903   0.02473   0.0235  0.0101  1.0000  -10.8949   0.0000   0.2170
  13.600   1.3047   0.02955   0.02529   0.0242  0.0100  1.0000  -10.9840   0.0000   0.2163
  13.700   1.3068   0.03011   0.02588   0.0249  0.0100  1.0000  -11.0704   0.0000   0.2157
  13.800   1.3086   0.03071   0.02652   0.0256  0.0099  1.0000  -11.1534   0.0000   0.2150
  13.900   1.3099   0.03136   0.02722   0.0262  0.0099  1.0000  -11.2322   0.0000   0.2144
  14.000   1.3108   0.03208   0.02798   0.0267  0.0098  1.0000  -11.3057   0.0000   0.2139
  14.100   1.3112   0.03288   0.02882   0.0271  0.0097  1.0000  -11.3730   0.0000   0.2133
  14.200   1.3109   0.03378   0.02976   0.0275  0.0097  1.0000  -11.4330   0.0000   0.2129
  14.300   1.3099   0.03478   0.03081   0.0278  0.0096  1.0000  -11.4849   0.0000   0.2125
  14.400   1.3082   0.03591   0.03199   0.0279  0.0096  1.0000  -11.5272   0.0000   0.2121
  14.500   1.3058   0.03718   0.03333   0.0278  0.0095  1.0000  -11.5598   0.0000   0.2119
  14.600   1.3025   0.03862   0.03483   0.0276  0.0095  1.0000  -11.5814   0.0000   0.2118
  14.700   1.2984   0.04024   0.03651   0.0272  0.0094  1.0000  -11.5920   0.0000   0.2119
  14.800   1.2936   0.04206   0.03840   0.0265  0.0094  1.0000  -11.5916   0.0000   0.2121
  14.900   1.2880   0.04406   0.04048   0.0257  0.0094  1.0000  -11.5802   0.0000   0.2125
  15.000   1.2819   0.04627   0.04276   0.0245  0.0093  1.0000  -11.5588   0.0000   0.2130
  15.100   1.2752   0.04867   0.04524   0.0232  0.0093  1.0000  -11.5285   0.0000   0.2137
  15.200   1.2680   0.05124   0.04788   0.0216  0.0093  1.0000  -11.4902   0.0000   0.2146
  15.300   1.2605   0.05394   0.05066   0.0200  0.0093  1.0000  -11.4455   0.0000   0.2156
  15.400   1.2528   0.05677   0.05357   0.0182  0.0092  1.0000  -11.3957   0.0000   0.2167
  15.500   1.2449   0.05971   0.05658   0.0163  0.0092  1.0000  -11.3416   0.0000   0.2179
  15.600   1.2368   0.06271   0.05964   0.0143  0.0092  1.0000  -11.2841   0.0000   0.2192
  15.700   1.2287   0.06576   0.06276   0.0124  0.0092  1.0000  -11.2238   0.0000   0.2205
  15.800   1.2204   0.06887   0.06593   0.0105  0.0092  1.0000  -11.1607   0.0000   0.2218
  15.900   1.2121   0.07202   0.06915   0.0085  0.0092  1.0000  -11.0949   0.0000   0.2231
  16.000   1.2037   0.07521   0.07239   0.0066  0.0092  1.0000  -11.0263   0.0000   0.2245
  16.100   1.1951   0.07841   0.07564   0.0047  0.0092  1.0000  -10.9549   0.0000   0.2258
  16.200   1.1865   0.08165   0.07893   0.0028  0.0093  1.0000  -10.8802   0.0000   0.2272
  16.300   1.1777   0.08494   0.08228   0.0009  0.0093  1.0000  -10.8014   0.0000   0.2286
  16.400   1.1687   0.08827   0.08566  -0.0010  0.0093  1.0000  -10.7182   0.0000   0.2300
  16.500   1.1595   0.09163   0.08907  -0.0028  0.0093  1.0000  -10.6305   0.0000   0.2315
  16.600   1.1501   0.09506   0.09254  -0.0047  0.0093  1.0000  -10.5368   0.0000   0.2330
  16.700   1.1405   0.09858   0.09611  -0.0066  0.0093  1.0000  -10.4362   0.0000   0.2345
  16.800   1.1306   0.10221   0.09978  -0.0086  0.0094  1.0000  -10.3279   0.0000   0.2362
  16.900   1.1204   0.10594   0.10357  -0.0106  0.0094  1.0000  -10.2110   0.0000   0.2379
  17.000   1.1097   0.10979   0.10746  -0.0127  0.0094  1.0000  -10.0829   0.0000   0.2397
  17.100   1.0985   0.11380   0.11152  -0.0149  0.0094  1.0000  -9.9411   0.0000   0.2417
  17.200   1.0865   0.11804   0.11581  -0.0171  0.0095  1.0000  -9.7813   0.0000   0.2438
  17.300   1.0734   0.12259   0.12041  -0.0196  0.0095  1.0000  -9.5973   0.0000   0.2462
  17.400   1.0584   0.12768   0.12556  -0.0223  0.0096  1.0000  -9.3709   0.0000   0.2490
  17.500   1.0377   0.13413   0.13210  -0.0258  0.0096  1.0000  -9.0354   0.0000   0.2527


