xflr5 v6.47

 Calculated polar for: NACA 0010

 1 1 Reynolds number fixed          Mach number fixed         

 xtrf =   1.000 (top)        1.000 (bottom)
 Mach =   0.000     Re =     0.350 e 6     Ncrit =   9.000

  alpha     CL        CD       CDp       Cm    Top Xtr Bot Xtr   Cpmin    Chinge    XCp    
 ------- -------- --------- --------- -------- ------- ------- -------- --------- ---------
 -10.000  -1.0118   0.02798   0.02177  -0.0147  1.0000  0.0241  -6.0731   0.0000   0.2259
  -9.900  -1.0043   0.02753   0.02126  -0.0143  1.0000  0.0244  -5.9820   0.0000   0.2263
  -9.800  -0.9970   0.02702   0.02068  -0.0139  1.0000  0.0249  -5.8974   0.0000   0.2267
  -9.700  -0.9896   0.02647   0.02004  -0.0134  1.0000  0.0253  -5.8177   0.0000   0.2272
  -9.600  -0.9822   0.02592   0.01938  -0.0130  1.0000  0.0257  -5.7406   0.0000   0.2277
  -9.500  -0.9745   0.02540   0.01875  -0.0125  1.0000  0.0260  -5.6740   0.0000   0.2282
  -9.400  -0.9667   0.02495   0.01817  -0.0120  1.0000  0.0263  -5.6083   0.0000   0.2287
  -9.300  -0.9592   0.02414   0.01729  -0.0116  1.0000  0.0266  -5.5492   0.0000   0.2291
  -9.200  -0.9514   0.02341   0.01658  -0.0112  1.0000  0.0270  -5.4747   0.0000   0.2295
  -9.100  -0.9431   0.02294   0.01611  -0.0109  1.0000  0.0274  -5.3901   0.0000   0.2298
  -9.000  -0.9347   0.02254   0.01571  -0.0106  1.0000  0.0278  -5.3046   0.0000   0.2302
  -8.900  -0.9261   0.02217   0.01530  -0.0102  1.0000  0.0282  -5.2208   0.0000   0.2306
  -8.800  -0.9176   0.02179   0.01488  -0.0099  1.0000  0.0287  -5.1397   0.0000   0.2310
  -8.700  -0.9089   0.02140   0.01445  -0.0095  1.0000  0.0292  -5.0605   0.0000   0.2314
  -8.600  -0.9003   0.02103   0.01402  -0.0091  1.0000  0.0298  -4.9830   0.0000   0.2318
  -8.500  -0.8914   0.02068   0.01361  -0.0088  1.0000  0.0303  -4.9055   0.0000   0.2322
  -8.400  -0.8823   0.02046   0.01328  -0.0084  1.0000  0.0309  -4.8246   0.0000   0.2326
  -8.300  -0.8749   0.01976   0.01263  -0.0080  1.0000  0.0316  -4.7524   0.0000   0.2331
  -8.200  -0.8663   0.01942   0.01231  -0.0076  1.0000  0.0322  -4.6645   0.0000   0.2335
  -8.100  -0.8575   0.01915   0.01204  -0.0073  1.0000  0.0329  -4.5764   0.0000   0.2339
  -8.000  -0.8485   0.01887   0.01173  -0.0070  1.0000  0.0337  -4.4919   0.0000   0.2343
  -7.900  -0.8395   0.01859   0.01141  -0.0066  1.0000  0.0345  -4.4109   0.0000   0.2348
  -7.800  -0.8304   0.01832   0.01108  -0.0063  1.0000  0.0353  -4.3316   0.0000   0.2352
  -7.700  -0.8220   0.01793   0.01066  -0.0058  1.0000  0.0360  -4.2578   0.0000   0.2358
  -7.600  -0.8142   0.01748   0.01024  -0.0053  1.0000  0.0367  -4.1811   0.0000   0.2364
  -7.500  -0.8055   0.01719   0.00996  -0.0050  1.0000  0.0375  -4.0981   0.0000   0.2369
  -7.400  -0.7967   0.01693   0.00970  -0.0046  1.0000  0.0385  -4.0162   0.0000   0.2374
  -7.300  -0.7877   0.01668   0.00942  -0.0042  1.0000  0.0395  -3.9364   0.0000   0.2379
  -7.200  -0.7784   0.01648   0.00916  -0.0038  1.0000  0.0405  -3.8564   0.0000   0.2384
  -7.100  -0.7707   0.01607   0.00878  -0.0033  1.0000  0.0416  -3.7825   0.0000   0.2391
  -7.000  -0.7620   0.01581   0.00853  -0.0029  1.0000  0.0428  -3.7049   0.0000   0.2396
  -6.900  -0.7531   0.01560   0.00832  -0.0026  1.0000  0.0442  -3.6319   0.0000   0.2402
  -6.800  -0.7439   0.01542   0.00809  -0.0022  1.0000  0.0457  -3.5615   0.0000   0.2407
  -6.700  -0.7357   0.01509   0.00777  -0.0017  1.0000  0.0471  -3.4962   0.0000   0.2415
  -6.600  -0.7272   0.01483   0.00754  -0.0013  1.0000  0.0485  -3.4254   0.0000   0.2421
  -6.500  -0.7183   0.01463   0.00733  -0.0009  1.0000  0.0502  -3.3553   0.0000   0.2428
  -6.400  -0.7091   0.01446   0.00711  -0.0005  1.0000  0.0520  -3.2865   0.0000   0.2434
  -6.300  -0.7012   0.01413   0.00683   0.0001  1.0000  0.0538  -3.2205   0.0000   0.2442
  -6.200  -0.6923   0.01394   0.00664   0.0005  1.0000  0.0561  -3.1497   0.0000   0.2449
  -6.100  -0.6834   0.01375   0.00643   0.0009  1.0000  0.0585  -3.0815   0.0000   0.2456
  -6.000  -0.6749   0.01350   0.00621   0.0013  1.0000  0.0610  -3.0128   0.0000   0.2464
  -5.900  -0.6658   0.01334   0.00603   0.0017  1.0000  0.0641  -2.9435   0.0000   0.2471
  -5.800  -0.6574   0.01308   0.00582   0.0022  1.0000  0.0671  -2.8768   0.0000   0.2479
  -5.700  -0.6483   0.01292   0.00564   0.0026  1.0000  0.0708  -2.8083   0.0000   0.2486
  -5.600  -0.6398   0.01268   0.00544   0.0030  1.0000  0.0746  -2.7418   0.0000   0.2494
  -5.500  -0.6309   0.01249   0.00526   0.0034  1.0000  0.0793  -2.6746   0.0000   0.2502
  -5.400  -0.6220   0.01230   0.00510   0.0039  1.0000  0.0847  -2.6072   0.0000   0.2511
  -5.300  -0.6133   0.01208   0.00493   0.0043  1.0000  0.0908  -2.5444   0.0000   0.2519
  -5.200  -0.6045   0.01188   0.00477   0.0047  1.0000  0.0978  -2.4848   0.0000   0.2527
  -5.100  -0.5957   0.01168   0.00461   0.0051  1.0000  0.1061  -2.4252   0.0000   0.2536
  -5.000  -0.5869   0.01148   0.00446   0.0055  1.0000  0.1158  -2.3657   0.0000   0.2545
  -4.900  -0.5781   0.01128   0.00432   0.0059  1.0000  0.1270  -2.3064   0.0000   0.2554
  -4.800  -0.5694   0.01108   0.00419   0.0063  1.0000  0.1398  -2.2472   0.0000   0.2563
  -4.700  -0.5605   0.01089   0.00407   0.0066  1.0000  0.1542  -2.1881   0.0000   0.2572
  -4.600  -0.5517   0.01069   0.00395   0.0070  1.0000  0.1699  -2.1293   0.0000   0.2581
  -4.500  -0.5429   0.01050   0.00385   0.0074  1.0000  0.1866  -2.0705   0.0000   0.2590
  -4.400  -0.5339   0.01032   0.00375   0.0077  1.0000  0.2045  -2.0119   0.0000   0.2600
  -4.300  -0.5250   0.01014   0.00365   0.0080  1.0000  0.2227  -1.9538   0.0000   0.2610
  -4.200  -0.5160   0.00997   0.00357   0.0084  1.0000  0.2412  -1.8958   0.0000   0.2619
  -4.100  -0.5070   0.00982   0.00348   0.0087  1.0000  0.2605  -1.8409   0.0000   0.2629
  -4.000  -0.4979   0.00965   0.00340   0.0090  1.0000  0.2799  -1.7888   0.0000   0.2639
  -3.900  -0.4888   0.00951   0.00334   0.0093  1.0000  0.2993  -1.7368   0.0000   0.2650
  -3.800  -0.4796   0.00936   0.00327   0.0096  1.0000  0.3188  -1.6851   0.0000   0.2660
  -3.700  -0.4704   0.00923   0.00322   0.0099  1.0000  0.3381  -1.6337   0.0000   0.2671
  -3.600  -0.4611   0.00910   0.00317   0.0102  1.0000  0.3577  -1.5826   0.0000   0.2682
  -3.500  -0.4517   0.00898   0.00312   0.0105  1.0000  0.3768  -1.5318   0.0000   0.2694
  -3.400  -0.4424   0.00886   0.00308   0.0108  1.0000  0.3961  -1.4813   0.0000   0.2705
  -3.200  -0.4235   0.00864   0.00300   0.0113  1.0000  0.4339  -1.3866   0.0000   0.2730
  -3.100  -0.4140   0.00854   0.00297   0.0115  1.0000  0.4529  -1.3415   0.0000   0.2743
  -3.000  -0.4044   0.00845   0.00295   0.0118  1.0000  0.4715  -1.2965   0.0000   0.2756
  -2.900  -0.3947   0.00835   0.00293   0.0120  1.0000  0.4900  -1.2519   0.0000   0.2769
  -2.800  -0.3850   0.00827   0.00292   0.0122  1.0000  0.5085  -1.2074   0.0000   0.2783
  -2.700  -0.3751   0.00819   0.00291   0.0124  1.0000  0.5271  -1.1636   0.0000   0.2797
  -2.600  -0.3653   0.00811   0.00291   0.0126  1.0000  0.5451  -1.1236   0.0000   0.2812
  -2.500  -0.3555   0.00804   0.00291   0.0128  1.0000  0.5632  -1.0839   0.0000   0.2828
  -2.400  -0.3418   0.00795   0.00290   0.0122  0.9989  0.5835  -1.0373   0.0000   0.2825
  -2.300  -0.3258   0.00786   0.00288   0.0111  0.9972  0.6042  -0.9865   0.0000   0.2810
  -2.200  -0.3099   0.00777   0.00287   0.0101  0.9951  0.6247  -0.9408   0.0000   0.2795
  -2.100  -0.2937   0.00769   0.00286   0.0090  0.9933  0.6449  -0.8950   0.0000   0.2776
  -2.000  -0.2783   0.00760   0.00285   0.0081  0.9909  0.6639  -0.8514   0.0000   0.2762
  -1.900  -0.2626   0.00751   0.00285   0.0072  0.9888  0.6828  -0.8108   0.0000   0.2743
  -1.800  -0.2462   0.00745   0.00284   0.0061  0.9871  0.7015  -0.7696   0.0000   0.2718
  -1.700  -0.2317   0.00736   0.00283   0.0055  0.9841  0.7186  -0.7337   0.0000   0.2705
  -1.600  -0.2159   0.00729   0.00283   0.0046  0.9819  0.7355  -0.6972   0.0000   0.2682
  -1.500  -0.1996   0.00723   0.00282   0.0036  0.9802  0.7520  -0.6622   0.0000   0.2648
  -1.400  -0.1855   0.00716   0.00281   0.0031  0.9768  0.7674  -0.6310   0.0000   0.2634
  -1.300  -0.1698   0.00710   0.00281   0.0022  0.9745  0.7823  -0.6002   0.0000   0.2599
  -1.200  -0.1533   0.00704   0.00280   0.0012  0.9728  0.7966  -0.5699   0.0000   0.2548
  -1.100  -0.1395   0.00699   0.00279   0.0008  0.9691  0.8098  -0.5441   0.0000   0.2528
  -1.000  -0.1247   0.00694   0.00279   0.0002  0.9662  0.8223  -0.5185   0.0000   0.2487
  -0.900  -0.1099   0.00690   0.00278  -0.0004  0.9634  0.8341  -0.4946   0.0000   0.2435
  -0.800  -0.0973   0.00686   0.00277  -0.0004  0.9588  0.8453  -0.4741   0.0000   0.2423
  -0.700  -0.0830   0.00682   0.00276  -0.0009  0.9556  0.8560  -0.4531   0.0000   0.2361
  -0.600  -0.0712   0.00679   0.00276  -0.0008  0.9502  0.8664  -0.4353   0.0000   0.2358
  -0.500  -0.0579   0.00676   0.00275  -0.0010  0.9462  0.8755  -0.4173   0.0000   0.2299
  -0.400  -0.0465   0.00674   0.00276  -0.0008  0.9403  0.8843  -0.4016   0.0000   0.2306
  -0.300  -0.0339   0.00672   0.00275  -0.0008  0.9356  0.8928  -0.3857   0.0000   0.2236
  -0.200  -0.0232   0.00671   0.00275  -0.0004  0.9286  0.9013  -0.3720   0.0000   0.2289
  -0.100  -0.0111   0.00671   0.00275  -0.0003  0.9228  0.9083  -0.3579   0.0000   0.2198
   0.000  -0.0000   0.00670   0.00275   0.0000  0.9157  0.9157  -0.3451   0.0000   0.6964
   0.100   0.0111   0.00671   0.00275   0.0003  0.9083  0.9228  -0.3579   0.0000   0.2198
   0.200   0.0232   0.00671   0.00275   0.0004  0.9013  0.9286  -0.3720   0.0000   0.2289
   0.300   0.0339   0.00672   0.00275   0.0008  0.8928  0.9356  -0.3857   0.0000   0.2236
   0.400   0.0465   0.00674   0.00276   0.0008  0.8843  0.9403  -0.4016   0.0000   0.2306
   0.500   0.0579   0.00676   0.00275   0.0010  0.8755  0.9462  -0.4173   0.0000   0.2299
   0.600   0.0712   0.00679   0.00276   0.0008  0.8664  0.9502  -0.4353   0.0000   0.2358
   0.700   0.0830   0.00682   0.00276   0.0009  0.8560  0.9556  -0.4531   0.0000   0.2361
   0.800   0.0973   0.00686   0.00277   0.0005  0.8453  0.9588  -0.4741   0.0000   0.2423
   0.900   0.1099   0.00689   0.00278   0.0004  0.8341  0.9635  -0.4946   0.0000   0.2435
   1.000   0.1247   0.00694   0.00279  -0.0002  0.8223  0.9662  -0.5185   0.0000   0.2487
   1.100   0.1395   0.00699   0.00279  -0.0008  0.8098  0.9691  -0.5441   0.0000   0.2528
   1.200   0.1533   0.00704   0.00280  -0.0012  0.7966  0.9728  -0.5699   0.0000   0.2548
   1.300   0.1698   0.00710   0.00281  -0.0022  0.7823  0.9745  -0.6002   0.0000   0.2599
   1.400   0.1855   0.00716   0.00281  -0.0031  0.7673  0.9768  -0.6310   0.0000   0.2634
   1.500   0.1996   0.00722   0.00282  -0.0036  0.7520  0.9802  -0.6622   0.0000   0.2648
   1.600   0.2159   0.00729   0.00283  -0.0046  0.7355  0.9819  -0.6972   0.0000   0.2682
   1.700   0.2317   0.00736   0.00283  -0.0055  0.7186  0.9841  -0.7337   0.0000   0.2705
   1.800   0.2462   0.00745   0.00284  -0.0061  0.7015  0.9871  -0.7696   0.0000   0.2718
   1.900   0.2626   0.00751   0.00285  -0.0072  0.6828  0.9888  -0.8108   0.0000   0.2743
   2.000   0.2783   0.00759   0.00285  -0.0081  0.6639  0.9909  -0.8514   0.0000   0.2762
   2.100   0.2937   0.00769   0.00286  -0.0090  0.6449  0.9933  -0.8950   0.0000   0.2776
   2.200   0.3099   0.00777   0.00287  -0.0101  0.6247  0.9951  -0.9408   0.0000   0.2795
   2.300   0.3258   0.00786   0.00288  -0.0111  0.6042  0.9972  -0.9865   0.0000   0.2810
   2.400   0.3419   0.00795   0.00290  -0.0122  0.5835  0.9989  -1.0373   0.0000   0.2825
   2.500   0.3555   0.00804   0.00291  -0.0128  0.5632  1.0000  -1.0838   0.0000   0.2828
   2.600   0.3653   0.00811   0.00291  -0.0126  0.5452  1.0000  -1.1235   0.0000   0.2812
   2.700   0.3751   0.00819   0.00291  -0.0124  0.5271  1.0000  -1.1636   0.0000   0.2797
   2.800   0.3849   0.00827   0.00292  -0.0122  0.5086  1.0000  -1.2073   0.0000   0.2783
   2.900   0.3947   0.00835   0.00293  -0.0120  0.4901  1.0000  -1.2518   0.0000   0.2769
   3.000   0.4043   0.00845   0.00295  -0.0118  0.4715  1.0000  -1.2964   0.0000   0.2756
   3.100   0.4139   0.00854   0.00297  -0.0115  0.4529  1.0000  -1.3414   0.0000   0.2743
   3.200   0.4234   0.00864   0.00300  -0.0113  0.4340  1.0000  -1.3865   0.0000   0.2730
   3.400   0.4423   0.00886   0.00308  -0.0107  0.3961  1.0000  -1.4812   0.0000   0.2705
   3.500   0.4517   0.00898   0.00312  -0.0105  0.3769  1.0000  -1.5316   0.0000   0.2693
   3.600   0.4610   0.00910   0.00317  -0.0102  0.3578  1.0000  -1.5825   0.0000   0.2682
   3.700   0.4703   0.00923   0.00322  -0.0099  0.3381  1.0000  -1.6336   0.0000   0.2671
   3.800   0.4795   0.00936   0.00327  -0.0096  0.3188  1.0000  -1.6850   0.0000   0.2660
   3.900   0.4887   0.00951   0.00334  -0.0093  0.2993  1.0000  -1.7367   0.0000   0.2649
   4.000   0.4979   0.00965   0.00340  -0.0090  0.2799  1.0000  -1.7887   0.0000   0.2639
   4.100   0.5069   0.00982   0.00348  -0.0087  0.2606  1.0000  -1.8407   0.0000   0.2629
   4.200   0.5160   0.00997   0.00357  -0.0084  0.2413  1.0000  -1.8957   0.0000   0.2619
   4.300   0.5250   0.01014   0.00365  -0.0080  0.2227  1.0000  -1.9537   0.0000   0.2609
   4.400   0.5339   0.01032   0.00375  -0.0077  0.2045  1.0000  -2.0118   0.0000   0.2600
   4.500   0.5428   0.01050   0.00385  -0.0073  0.1866  1.0000  -2.0704   0.0000   0.2590
   4.600   0.5517   0.01069   0.00395  -0.0070  0.1699  1.0000  -2.1291   0.0000   0.2581
   4.700   0.5605   0.01089   0.00407  -0.0066  0.1543  1.0000  -2.1879   0.0000   0.2572
   4.800   0.5693   0.01108   0.00419  -0.0062  0.1398  1.0000  -2.2471   0.0000   0.2563
   4.900   0.5781   0.01128   0.00432  -0.0059  0.1270  1.0000  -2.3062   0.0000   0.2554
   5.000   0.5869   0.01148   0.00446  -0.0055  0.1158  1.0000  -2.3656   0.0000   0.2545
   5.100   0.5957   0.01168   0.00461  -0.0051  0.1061  1.0000  -2.4251   0.0000   0.2536
   5.200   0.6045   0.01188   0.00477  -0.0047  0.0978  1.0000  -2.4847   0.0000   0.2527
   5.300   0.6133   0.01208   0.00493  -0.0043  0.0908  1.0000  -2.5443   0.0000   0.2519
   5.400   0.6219   0.01230   0.00510  -0.0038  0.0847  1.0000  -2.6071   0.0000   0.2510
   5.500   0.6308   0.01249   0.00526  -0.0034  0.0793  1.0000  -2.6745   0.0000   0.2502
   5.600   0.6397   0.01267   0.00544  -0.0030  0.0746  1.0000  -2.7416   0.0000   0.2494
   5.700   0.6482   0.01292   0.00564  -0.0026  0.0708  1.0000  -2.8082   0.0000   0.2486
   5.800   0.6573   0.01308   0.00581  -0.0022  0.0671  1.0000  -2.8766   0.0000   0.2479
   5.900   0.6657   0.01334   0.00603  -0.0017  0.0641  1.0000  -2.9434   0.0000   0.2471
   6.000   0.6749   0.01350   0.00621  -0.0013  0.0610  1.0000  -3.0127   0.0000   0.2464
   6.100   0.6834   0.01375   0.00643  -0.0009  0.0585  1.0000  -3.0814   0.0000   0.2456
   6.200   0.6923   0.01394   0.00664  -0.0005  0.0561  1.0000  -3.1496   0.0000   0.2449
   6.300   0.7012   0.01412   0.00683  -0.0001  0.0538  1.0000  -3.2204   0.0000   0.2442
   6.400   0.7091   0.01446   0.00711   0.0005  0.0520  1.0000  -3.2864   0.0000   0.2434
   6.500   0.7183   0.01463   0.00733   0.0009  0.0502  1.0000  -3.3553   0.0000   0.2428
   6.600   0.7272   0.01483   0.00754   0.0013  0.0485  1.0000  -3.4254   0.0000   0.2421
   6.700   0.7357   0.01509   0.00777   0.0017  0.0471  1.0000  -3.4962   0.0000   0.2415
   6.800   0.7438   0.01542   0.00809   0.0022  0.0457  1.0000  -3.5615   0.0000   0.2407
   6.900   0.7530   0.01560   0.00832   0.0026  0.0442  1.0000  -3.6319   0.0000   0.2402
   7.000   0.7620   0.01581   0.00853   0.0029  0.0428  1.0000  -3.7048   0.0000   0.2396
   7.100   0.7707   0.01607   0.00878   0.0033  0.0416  1.0000  -3.7824   0.0000   0.2391
   7.200   0.7784   0.01647   0.00916   0.0038  0.0405  1.0000  -3.8564   0.0000   0.2384
   7.300   0.7877   0.01668   0.00942   0.0042  0.0395  1.0000  -3.9364   0.0000   0.2379
   7.400   0.7967   0.01693   0.00970   0.0046  0.0385  1.0000  -4.0162   0.0000   0.2374
   7.500   0.8055   0.01719   0.00996   0.0050  0.0375  1.0000  -4.0981   0.0000   0.2369
   7.600   0.8142   0.01748   0.01024   0.0053  0.0367  1.0000  -4.1811   0.0000   0.2364
   7.700   0.8220   0.01793   0.01066   0.0058  0.0360  1.0000  -4.2578   0.0000   0.2358
   7.800   0.8305   0.01832   0.01108   0.0063  0.0353  1.0000  -4.3317   0.0000   0.2352
   7.900   0.8396   0.01859   0.01141   0.0066  0.0345  1.0000  -4.4110   0.0000   0.2348
   8.000   0.8486   0.01887   0.01173   0.0070  0.0337  1.0000  -4.4920   0.0000   0.2343
   8.100   0.8575   0.01914   0.01204   0.0073  0.0329  1.0000  -4.5765   0.0000   0.2339
   8.200   0.8664   0.01942   0.01231   0.0076  0.0322  1.0000  -4.6646   0.0000   0.2335
   8.300   0.8749   0.01976   0.01263   0.0080  0.0316  1.0000  -4.7526   0.0000   0.2332
   8.400   0.8823   0.02045   0.01328   0.0084  0.0309  1.0000  -4.8248   0.0000   0.2326
   8.500   0.8915   0.02068   0.01361   0.0088  0.0303  1.0000  -4.9056   0.0000   0.2322
   8.600   0.9003   0.02103   0.01402   0.0091  0.0298  1.0000  -4.9831   0.0000   0.2318
   8.700   0.9090   0.02140   0.01445   0.0095  0.0292  1.0000  -5.0607   0.0000   0.2314
   8.800   0.9176   0.02179   0.01488   0.0099  0.0287  1.0000  -5.1399   0.0000   0.2310
   8.900   0.9262   0.02217   0.01530   0.0102  0.0282  1.0000  -5.2210   0.0000   0.2306
   9.000   0.9347   0.02254   0.01571   0.0106  0.0278  1.0000  -5.3048   0.0000   0.2302
   9.100   0.9432   0.02294   0.01611   0.0109  0.0274  1.0000  -5.3904   0.0000   0.2299
   9.200   0.9515   0.02341   0.01658   0.0112  0.0270  1.0000  -5.4750   0.0000   0.2295
   9.300   0.9593   0.02414   0.01730   0.0115  0.0266  1.0000  -5.5494   0.0000   0.2291
   9.400   0.9668   0.02495   0.01817   0.0120  0.0263  1.0000  -5.6085   0.0000   0.2287
   9.500   0.9746   0.02540   0.01875   0.0125  0.0260  1.0000  -5.6742   0.0000   0.2282
   9.600   0.9822   0.02592   0.01938   0.0129  0.0257  1.0000  -5.7410   0.0000   0.2277
   9.700   0.9897   0.02647   0.02004   0.0134  0.0253  1.0000  -5.8181   0.0000   0.2272
   9.800   0.9971   0.02702   0.02068   0.0139  0.0249  1.0000  -5.8978   0.0000   0.2267
   9.900   1.0044   0.02753   0.02126   0.0143  0.0244  1.0000  -5.9824   0.0000   0.2263
  10.000   1.0119   0.02799   0.02177   0.0147  0.0241  1.0000  -6.0736   0.0000   0.2259
  10.100   1.0195   0.02840   0.02222   0.0151  0.0237  1.0000  -6.1704   0.0000   0.2255
  10.200   1.0268   0.02882   0.02268   0.0154  0.0233  1.0000  -6.2672   0.0000   0.2251
  10.300   1.0341   0.02927   0.02315   0.0158  0.0230  1.0000  -6.3660   0.0000   0.2248
  10.400   1.0412   0.02985   0.02374   0.0161  0.0228  1.0000  -6.4614   0.0000   0.2244
  10.500   1.0473   0.03074   0.02465   0.0165  0.0225  1.0000  -6.5398   0.0000   0.2240
  10.600   1.0513   0.03223   0.02622   0.0171  0.0223  1.0000  -6.5801   0.0000   0.2235
  10.700   1.0555   0.03293   0.02708   0.0178  0.0221  1.0000  -6.6340   0.0000   0.2227
  10.800   1.0591   0.03376   0.02808   0.0186  0.0220  1.0000  -6.6794   0.0000   0.2219
  10.900   1.0620   0.03471   0.02920   0.0194  0.0218  1.0000  -6.7168   0.0000   0.2211
  11.000   1.0640   0.03576   0.03041   0.0202  0.0217  1.0000  -6.7467   0.0000   0.2203
  11.100   1.0652   0.03688   0.03169   0.0211  0.0215  1.0000  -6.7698   0.0000   0.2194
  11.200   1.0656   0.03808   0.03305   0.0219  0.0214  1.0000  -6.7859   0.0000   0.2184
  11.300   1.0649   0.03935   0.03447   0.0229  0.0213  1.0000  -6.7948   0.0000   0.2174
  11.400   1.0631   0.04066   0.03593   0.0238  0.0212  1.0000  -6.7965   0.0000   0.2164
  11.500   1.0601   0.04203   0.03744   0.0248  0.0211  1.0000  -6.7909   0.0000   0.2153
  11.600   1.0555   0.04337   0.03892   0.0259  0.0211  1.0000  -6.7780   0.0000   0.2140
  11.800   1.0424   0.04608   0.04187   0.0282  0.0210  1.0000  -6.7340   0.0000   0.2113
  11.900   1.0349   0.04758   0.04349   0.0289  0.0210  1.0000  -6.7040   0.0000   0.2102
  12.000   1.0269   0.04921   0.04522   0.0294  0.0210  1.0000  -6.6688   0.0000   0.2094
  12.100   1.0184   0.05099   0.04711   0.0295  0.0210  1.0000  -6.6286   0.0000   0.2089
  12.200   1.0094   0.05294   0.04916   0.0292  0.0211  1.0000  -6.5832   0.0000   0.2087
  12.300   1.0002   0.05508   0.05141   0.0285  0.0211  1.0000  -6.5326   0.0000   0.2090
  12.400   0.9907   0.05743   0.05386   0.0273  0.0211  1.0000  -6.4767   0.0000   0.2097
  12.500   0.9809   0.06003   0.05655   0.0257  0.0212  1.0000  -6.4151   0.0000   0.2108
  12.600   0.9709   0.06288   0.05949   0.0237  0.0212  1.0000  -6.3477   0.0000   0.2124
  12.700   0.9607   0.06600   0.06269   0.0214  0.0213  1.0000  -6.2737   0.0000   0.2145
  12.800   0.9503   0.06940   0.06617   0.0186  0.0214  1.0000  -6.1927   0.0000   0.2169
  12.900   0.9397   0.07306   0.06990   0.0157  0.0215  1.0000  -6.1041   0.0000   0.2197
  13.000   0.9288   0.07699   0.07390   0.0125  0.0216  1.0000  -6.0071   0.0000   0.2227
  13.100   0.9176   0.08116   0.07812   0.0092  0.0217  1.0000  -5.9017   0.0000   0.2260
  13.200   0.9063   0.08548   0.08249   0.0060  0.0218  1.0000  -5.7884   0.0000   0.2293
  13.300   0.8948   0.08992   0.08698   0.0028  0.0219  1.0000  -5.6688   0.0000   0.2326
  13.400   0.8837   0.09433   0.09141  -0.0001  0.0221  1.0000  -5.5474   0.0000   0.2358
  13.500   0.8734   0.09847   0.09557  -0.0026  0.0222  1.0000  -5.4331   0.0000   0.2385
  13.600   0.8649   0.10208   0.09919  -0.0045  0.0223  1.0000  -5.3388   0.0000   0.2407
  14.300   0.5171   0.14457   0.14187  -0.0111  0.0372  1.0000  -1.6683   0.0000   0.2623
  14.400   0.5186   0.14542   0.14272  -0.0113  0.0369  1.0000  -1.6824   0.0000   0.2625
  14.500   0.5208   0.14620   0.14351  -0.0114  0.0366  1.0000  -1.7059   0.0000   0.2625
  14.600   0.5241   0.14690   0.14421  -0.0113  0.0363  1.0000  -1.7417   0.0000   0.2621
  14.700   0.5285   0.14754   0.14486  -0.0111  0.0361  1.0000  -1.7908   0.0000   0.2614
  14.800   0.5332   0.14813   0.14545  -0.0107  0.0359  1.0000  -1.8481   0.0000   0.2604
  14.900   0.5387   0.14872   0.14605  -0.0102  0.0358  1.0000  -1.9183   0.0000   0.2589
  15.000   0.5386   0.15020   0.14752  -0.0105  0.0356  1.0000  -1.9021   0.0000   0.2596
  15.100   0.5305   0.15244   0.14976  -0.0124  0.0355  1.0000  -1.7657   0.0000   0.2636
  15.200   0.5163   0.15504   0.15235  -0.0153  0.0347  1.0000  -1.5496   0.0000   0.2702
  15.300   0.5152   0.15638   0.15368  -0.0160  0.0340  1.0000  -1.5139   0.0000   0.2717
  15.400   0.5156   0.15751   0.15481  -0.0166  0.0334  1.0000  -1.5007   0.0000   0.2727
  15.500   0.5164   0.15856   0.15587  -0.0170  0.0330  1.0000  -1.4954   0.0000   0.2734
  15.600   0.5176   0.15956   0.15687  -0.0174  0.0326  1.0000  -1.4956   0.0000   0.2741
  15.700   0.5190   0.16051   0.15782  -0.0177  0.0322  1.0000  -1.5010   0.0000   0.2746
  15.800   0.5209   0.16139   0.15871  -0.0180  0.0319  1.0000  -1.5133   0.0000   0.2749
  15.900   0.5234   0.16222   0.15953  -0.0182  0.0316  1.0000  -1.5352   0.0000   0.2749
  16.000   0.5268   0.16295   0.16027  -0.0182  0.0314  1.0000  -1.5712   0.0000   0.2746
  16.100   0.5321   0.16360   0.16093  -0.0179  0.0312  1.0000  -1.6333   0.0000   0.2735
  16.200   0.5406   0.16429   0.16163  -0.0170  0.0310  1.0000  -1.7379   0.0000   0.2711
  16.300   0.5407   0.16579   0.16312  -0.0175  0.0308  1.0000  -1.7146   0.0000   0.2719
  16.400   0.5321   0.16760   0.16493  -0.0196  0.0307  1.0000  -1.5626   0.0000   0.2766
  16.500   0.5247   0.16960   0.16692  -0.0217  0.0298  1.0000  -1.4083   0.0000   0.2813
  16.600   0.5251   0.17081   0.16813  -0.0223  0.0291  1.0000  -1.3928   0.0000   0.2824
  16.700   0.5262   0.17188   0.16920  -0.0228  0.0286  1.0000  -1.3905   0.0000   0.2832
  16.800   0.5275   0.17291   0.17024  -0.0232  0.0282  1.0000  -1.3934   0.0000   0.2838
  16.900   0.5291   0.17390   0.17123  -0.0236  0.0279  1.0000  -1.4008   0.0000   0.2844
  17.000   0.5308   0.17484   0.17218  -0.0240  0.0276  1.0000  -1.4126   0.0000   0.2849
  17.100   0.5328   0.17575   0.17308  -0.0243  0.0273  1.0000  -1.4294   0.0000   0.2852
  17.200   0.5351   0.17663   0.17397  -0.0246  0.0271  1.0000  -1.4521   0.0000   0.2854
  17.300   0.5378   0.17747   0.17481  -0.0248  0.0269  1.0000  -1.4822   0.0000   0.2853
  17.400   0.5412   0.17831   0.17565  -0.0248  0.0267  1.0000  -1.5232   0.0000   0.2850
  17.500   0.5460   0.17920   0.17655  -0.0246  0.0266  1.0000  -1.5825   0.0000   0.2840
  17.600   0.5533   0.18039   0.17775  -0.0240  0.0264  1.0000  -1.6726   0.0000   0.2820
  17.700   0.5523   0.18181   0.17916  -0.0248  0.0264  1.0000  -1.6300   0.0000   0.2836
  17.800   0.5476   0.18316   0.18051  -0.0263  0.0263  1.0000  -1.5310   0.0000   0.2868
  17.900   0.5425   0.18480   0.18214  -0.0280  0.0260  1.0000  -1.4053   0.0000   0.2906
  18.000   0.5416   0.18630   0.18364  -0.0290  0.0254  1.0000  -1.3464   0.0000   0.2926
  18.100   0.5426   0.18748   0.18483  -0.0296  0.0249  1.0000  -1.3315   0.0000   0.2935
  18.200   0.5439   0.18859   0.18594  -0.0301  0.0245  1.0000  -1.3254   0.0000   0.2943
  18.300   0.5453   0.18967   0.18702  -0.0306  0.0242  1.0000  -1.3237   0.0000   0.2949
  18.400   0.5469   0.19071   0.18807  -0.0310  0.0239  1.0000  -1.3252   0.0000   0.2955
  18.500   0.5485   0.19173   0.18909  -0.0315  0.0236  1.0000  -1.3297   0.0000   0.2961
  18.600   0.5503   0.19272   0.19008  -0.0319  0.0233  1.0000  -1.3373   0.0000   0.2966
  18.700   0.5522   0.19368   0.19104  -0.0323  0.0231  1.0000  -1.3481   0.0000   0.2970
  18.800   0.5542   0.19463   0.19200  -0.0326  0.0229  1.0000  -1.3628   0.0000   0.2973
  18.900   0.5564   0.19556   0.19293  -0.0329  0.0228  1.0000  -1.3820   0.0000   0.2975
  19.000   0.5589   0.19648   0.19386  -0.0332  0.0226  1.0000  -1.4072   0.0000   0.2975
  19.100   0.5618   0.19743   0.19481  -0.0333  0.0225  1.0000  -1.4405   0.0000   0.2973
  19.200   0.5657   0.19847   0.19586  -0.0333  0.0224  1.0000  -1.4870   0.0000   0.2966
  19.300   0.5718   0.19988   0.19728  -0.0329  0.0223  1.0000  -1.5616   0.0000   0.2950
  19.400   0.5712   0.20116   0.19855  -0.0337  0.0222  1.0000  -1.5188   0.0000   0.2965
  19.500   0.5684   0.20235   0.19973  -0.0350  0.0222  1.0000  -1.4357   0.0000   0.2991
  19.600   0.5655   0.20378   0.20117  -0.0364  0.0220  1.0000  -1.3310   0.0000   0.3021
  19.700   0.5651   0.20530   0.20268  -0.0374  0.0214  1.0000  -1.2620   0.0000   0.3040
  19.800   0.5663   0.20650   0.20389  -0.0380  0.0209  1.0000  -1.2452   0.0000   0.3048
  19.900   0.5678   0.20761   0.20501  -0.0385  0.0205  1.0000  -1.2390   0.0000   0.3055
  20.000   0.5694   0.20868   0.20607  -0.0390  0.0201  1.0000  -1.2369   0.0000   0.3060


