xflr5 v6.47

 Calculated polar for: NACA 0010

 1 1 Reynolds number fixed          Mach number fixed         

 xtrf =   1.000 (top)        1.000 (bottom)
 Mach =   0.000     Re =     0.020 e 6     Ncrit =   9.000

  alpha     CL        CD       CDp       Cm    Top Xtr Bot Xtr   Cpmin    Chinge    XCp    
 ------- -------- --------- --------- -------- ------- ------- -------- --------- ---------
 -10.000  -0.4841   0.12324   0.11076   0.0461  1.0000  0.7919  -1.2576   0.0000   0.3356
  -9.900  -0.4839   0.12245   0.10997   0.0465  1.0000  0.8014  -1.2589   0.0000   0.3366
  -9.800  -0.4761   0.12036   0.10784   0.0457  1.0000  0.8128  -1.2502   0.0000   0.3364
  -9.700  -0.4655   0.11772   0.10516   0.0442  1.0000  0.8233  -1.2425   0.0000   0.3353
  -9.600  -0.4588   0.11573   0.10314   0.0434  1.0000  0.8326  -1.2393   0.0000   0.3349
  -9.500  -0.4573   0.11468   0.10208   0.0435  1.0000  0.8416  -1.2415   0.0000   0.3356
  -9.400  -0.4499   0.11269   0.10005   0.0425  1.0000  0.8522  -1.2373   0.0000   0.3349
  -9.300  -0.4395   0.11012   0.09744   0.0409  1.0000  0.8621  -1.2296   0.0000   0.3334
  -9.200  -0.4334   0.10825   0.09553   0.0400  1.0000  0.8700  -1.2266   0.0000   0.3326
  -9.100  -0.4325   0.10731   0.09458   0.0401  1.0000  0.8781  -1.2291   0.0000   0.3333
  -9.000  -0.4208   0.10448   0.09170   0.0380  1.0000  0.8844  -1.2195   0.0000   0.3307
  -8.900  -0.4210   0.10365   0.09085   0.0383  1.0000  0.8901  -1.2232   0.0000   0.3314
  -8.700  -0.5781   0.10785   0.09579   0.0327  1.0000  0.4825  -1.5762   0.0000   0.3000
  -8.600  -0.5936   0.10590   0.09395   0.0302  1.0000  0.4562  -1.6355   0.0000   0.2945
  -8.500  -0.5873   0.10349   0.09152   0.0291  1.0000  0.4512  -1.6336   0.0000   0.2932
  -8.300  -0.6060   0.09954   0.08771   0.0260  1.0000  0.4277  -1.7115   0.0000   0.2868
  -8.100  -0.6183   0.09544   0.08370   0.0235  1.0000  0.4147  -1.7698   0.0000   0.2821
  -8.000  -0.6172   0.09342   0.08170   0.0228  1.0000  0.4137  -1.7767   0.0000   0.2812
  -7.900  -0.6175   0.09144   0.07973   0.0221  1.0000  0.4125  -1.7867   0.0000   0.2802
  -7.700  -0.6378   0.08704   0.07548   0.0193  1.0000  0.4012  -1.8677   0.0000   0.2748
  -7.600  -0.6394   0.08497   0.07343   0.0185  1.0000  0.4007  -1.8820   0.0000   0.2735
  -7.500  -0.6415   0.08288   0.07137   0.0177  1.0000  0.4004  -1.8979   0.0000   0.2723
  -7.400  -0.6442   0.08078   0.06929   0.0168  1.0000  0.4001  -1.9152   0.0000   0.2710
  -7.300  -0.6473   0.07868   0.06721   0.0160  1.0000  0.4001  -1.9340   0.0000   0.2697
  -7.200  -0.6400   0.07719   0.06570   0.0166  1.0000  0.4068  -1.9140   0.0000   0.2708
  -7.100  -0.6419   0.07522   0.06375   0.0161  1.0000  0.4086  -1.9267   0.0000   0.2700
  -7.000  -0.6449   0.07318   0.06172   0.0154  1.0000  0.4099  -1.9444   0.0000   0.2690
  -6.900  -0.6484   0.07109   0.05964   0.0147  1.0000  0.4111  -1.9644   0.0000   0.2678
  -6.800  -0.6523   0.06896   0.05751   0.0140  1.0000  0.4124  -1.9860   0.0000   0.2666
  -6.700  -0.6567   0.06679   0.05532   0.0132  1.0000  0.4137  -2.0095   0.0000   0.2653
  -6.600  -0.6483   0.06561   0.05413   0.0142  1.0000  0.4240  -1.9871   0.0000   0.2672
  -6.500  -0.6523   0.06351   0.05201   0.0136  1.0000  0.4268  -2.0084   0.0000   0.2662
  -6.400  -0.6451   0.06229   0.05077   0.0145  1.0000  0.4374  -1.9892   0.0000   0.2679
  -6.300  -0.6488   0.06021   0.04866   0.0139  1.0000  0.4411  -2.0095   0.0000   0.2670
  -6.200  -0.6417   0.05907   0.04747   0.0150  1.0000  0.4534  -1.9891   0.0000   0.2689
  -6.100  -0.6356   0.05789   0.04626   0.0160  1.0000  0.4659  -1.9718   0.0000   0.2707
  -6.000  -0.6301   0.05666   0.04501   0.0169  1.0000  0.4787  -1.9566   0.0000   0.2725
  -5.900  -0.6346   0.05466   0.04297   0.0165  1.0000  0.4851  -1.9774   0.0000   0.2717
  -5.700  -0.6137   0.05329   0.04157   0.0204  1.0000  0.5251  -1.9054   0.0000   0.2789
  -5.600  -0.6009   0.05281   0.04104   0.0226  1.0000  0.5495  -1.8608   0.0000   0.2834
  -5.500  -0.5954   0.05181   0.04001   0.0240  1.0000  0.5691  -1.8414   0.0000   0.2861
  -5.400  -0.5816   0.05140   0.03953   0.0264  1.0000  0.5980  -1.7928   0.0000   0.2911
  -5.300  -0.5639   0.05113   0.03915   0.0288  1.0000  0.6321  -1.7351   0.0000   0.2966
  -5.200  -0.5378   0.05108   0.03888   0.0309  1.0000  0.6757  -1.6603   0.0000   0.3030
  -4.900  -0.3381   0.04746   0.03337   0.0140  1.0000  0.9032  -1.2023   0.0000   0.2851
  -4.800  -0.2093   0.04178   0.02676  -0.0116  1.0000  1.0000  -0.9700   0.0000   0.1861
  -4.700  -0.2061   0.04095   0.02586  -0.0122  1.0000  1.0000  -0.9577   0.0000   0.1823
  -4.600  -0.2028   0.04014   0.02500  -0.0128  1.0000  1.0000  -0.9447   0.0000   0.1786
  -4.500  -0.1994   0.03936   0.02416  -0.0133  1.0000  1.0000  -0.9319   0.0000   0.1748
  -4.400  -0.1959   0.03861   0.02336  -0.0138  1.0000  1.0000  -0.9192   0.0000   0.1711
  -4.300  -0.1924   0.03788   0.02254  -0.0143  1.0000  1.0000  -0.9059   0.0000   0.1673
  -4.200  -0.1888   0.03719   0.02179  -0.0148  1.0000  1.0000  -0.8921   0.0000   0.1636
  -4.100  -0.1851   0.03652   0.02107  -0.0152  1.0000  1.0000  -0.8777   0.0000   0.1599
  -4.000  -0.1814   0.03588   0.02037  -0.0155  1.0000  1.0000  -0.8628   0.0000   0.1563
  -3.900  -0.1776   0.03526   0.01970  -0.0159  1.0000  1.0000  -0.8475   0.0000   0.1527
  -3.800  -0.1737   0.03467   0.01906  -0.0161  1.0000  1.0000  -0.8319   0.0000   0.1491
  -3.700  -0.1698   0.03411   0.01845  -0.0164  1.0000  1.0000  -0.8171   0.0000   0.1456
  -3.600  -0.1657   0.03358   0.01786  -0.0166  1.0000  1.0000  -0.8018   0.0000   0.1421
  -3.500  -0.1616   0.03306   0.01730  -0.0167  1.0000  1.0000  -0.7861   0.0000   0.1387
  -3.400  -0.1574   0.03258   0.01676  -0.0169  1.0000  1.0000  -0.7700   0.0000   0.1352
  -3.300  -0.1532   0.03211   0.01625  -0.0169  1.0000  1.0000  -0.7536   0.0000   0.1318
  -3.200  -0.1488   0.03167   0.01576  -0.0170  1.0000  1.0000  -0.7379   0.0000   0.1284
  -3.100  -0.1444   0.03125   0.01530  -0.0170  1.0000  1.0000  -0.7222   0.0000   0.1251
  -3.000  -0.1400   0.03086   0.01486  -0.0169  1.0000  1.0000  -0.7061   0.0000   0.1218
  -2.900  -0.1355   0.03048   0.01444  -0.0168  1.0000  1.0000  -0.6899   0.0000   0.1185
  -2.800  -0.1309   0.03013   0.01405  -0.0167  1.0000  1.0000  -0.6740   0.0000   0.1152
  -2.700  -0.1262   0.02979   0.01365  -0.0165  1.0000  1.0000  -0.6585   0.0000   0.1120
  -2.600  -0.1216   0.02948   0.01330  -0.0163  1.0000  1.0000  -0.6429   0.0000   0.1088
  -2.500  -0.1168   0.02918   0.01296  -0.0160  1.0000  1.0000  -0.6271   0.0000   0.1056
  -2.400  -0.1121   0.02890   0.01265  -0.0157  1.0000  1.0000  -0.6123   0.0000   0.1024
  -2.300  -0.1073   0.02864   0.01235  -0.0154  1.0000  1.0000  -0.5974   0.0000   0.0993
  -2.200  -0.1025   0.02839   0.01207  -0.0150  1.0000  1.0000  -0.5823   0.0000   0.0962
  -2.100  -0.0977   0.02816   0.01181  -0.0146  1.0000  1.0000  -0.5682   0.0000   0.0931
  -2.000  -0.0928   0.02794   0.01157  -0.0142  1.0000  1.0000  -0.5541   0.0000   0.0900
  -1.900  -0.0880   0.02774   0.01134  -0.0137  1.0000  1.0000  -0.5402   0.0000   0.0870
  -1.800  -0.0832   0.02755   0.01113  -0.0132  1.0000  1.0000  -0.5269   0.0000   0.0840
  -1.700  -0.0783   0.02738   0.01093  -0.0127  1.0000  1.0000  -0.5135   0.0000   0.0811
  -1.600  -0.0735   0.02722   0.01075  -0.0121  1.0000  1.0000  -0.5010   0.0000   0.0782
  -1.500  -0.0687   0.02707   0.01058  -0.0115  1.0000  1.0000  -0.4885   0.0000   0.0754
  -1.400  -0.0639   0.02693   0.01042  -0.0109  1.0000  1.0000  -0.4767   0.0000   0.0728
  -1.300  -0.0592   0.02680   0.01027  -0.0102  1.0000  1.0000  -0.4649   0.0000   0.0702
  -1.200  -0.0545   0.02669   0.01014  -0.0095  1.0000  1.0000  -0.4539   0.0000   0.0678
  -1.100  -0.0498   0.02658   0.01002  -0.0088  1.0000  1.0000  -0.4429   0.0000   0.0656
  -1.000  -0.0452   0.02649   0.00991  -0.0081  1.0000  1.0000  -0.4325   0.0000   0.0636
  -0.900  -0.0406   0.02640   0.00981  -0.0073  1.0000  1.0000  -0.4223   0.0000   0.0618
  -0.800  -0.0360   0.02632   0.00973  -0.0066  1.0000  1.0000  -0.4126   0.0000   0.0604
  -0.700  -0.0315   0.02626   0.00966  -0.0058  1.0000  1.0000  -0.4032   0.0000   0.0593
  -0.600  -0.0270   0.02620   0.00959  -0.0050  1.0000  1.0000  -0.3940   0.0000   0.0586
  -0.500  -0.0225   0.02615   0.00954  -0.0042  1.0000  1.0000  -0.3853   0.0000   0.0583
  -0.400  -0.0180   0.02612   0.00950  -0.0033  1.0000  1.0000  -0.3767   0.0000   0.0584
  -0.300  -0.0135   0.02609   0.00946  -0.0025  1.0000  1.0000  -0.3685   0.0000   0.0590
  -0.200  -0.0091   0.02606   0.00944  -0.0017  1.0000  1.0000  -0.3606   0.0000   0.0601
  -0.100  -0.0045   0.02605   0.00943  -0.0008  1.0000  1.0000  -0.3527   0.0000   0.0615
   0.000   0.0000   0.02605   0.00942  -0.0000  1.0000  1.0000  -0.3453   0.0000   0.4239
   0.100   0.0045   0.02605   0.00943   0.0008  1.0000  1.0000  -0.3527   0.0000   0.0615
   0.200   0.0091   0.02606   0.00944   0.0017  1.0000  1.0000  -0.3606   0.0000   0.0601
   0.300   0.0135   0.02609   0.00946   0.0025  1.0000  1.0000  -0.3685   0.0000   0.0591
   0.400   0.0180   0.02612   0.00950   0.0033  1.0000  1.0000  -0.3768   0.0000   0.0585
   0.500   0.0225   0.02615   0.00954   0.0042  1.0000  1.0000  -0.3853   0.0000   0.0583
   0.600   0.0270   0.02620   0.00959   0.0050  1.0000  1.0000  -0.3940   0.0000   0.0586
   0.700   0.0315   0.02626   0.00966   0.0058  1.0000  1.0000  -0.4032   0.0000   0.0593
   0.800   0.0360   0.02632   0.00973   0.0066  1.0000  1.0000  -0.4126   0.0000   0.0604
   0.900   0.0406   0.02640   0.00981   0.0073  1.0000  1.0000  -0.4224   0.0000   0.0619
   1.000   0.0452   0.02648   0.00991   0.0081  1.0000  1.0000  -0.4325   0.0000   0.0636
   1.100   0.0498   0.02658   0.01002   0.0088  1.0000  1.0000  -0.4429   0.0000   0.0657
   1.200   0.0545   0.02668   0.01013   0.0095  1.0000  1.0000  -0.4539   0.0000   0.0679
   1.300   0.0592   0.02680   0.01027   0.0102  1.0000  1.0000  -0.4650   0.0000   0.0703
   1.400   0.0640   0.02693   0.01042   0.0109  1.0000  1.0000  -0.4767   0.0000   0.0729
   1.500   0.0687   0.02706   0.01058   0.0115  1.0000  1.0000  -0.4886   0.0000   0.0756
   1.600   0.0735   0.02721   0.01074   0.0121  1.0000  1.0000  -0.5011   0.0000   0.0783
   1.700   0.0784   0.02738   0.01093   0.0127  1.0000  1.0000  -0.5136   0.0000   0.0812
   1.800   0.0832   0.02755   0.01112   0.0132  1.0000  1.0000  -0.5269   0.0000   0.0842
   1.900   0.0880   0.02774   0.01134   0.0137  1.0000  1.0000  -0.5402   0.0000   0.0871
   2.000   0.0929   0.02794   0.01156   0.0142  1.0000  1.0000  -0.5541   0.0000   0.0902
   2.100   0.0977   0.02815   0.01181   0.0146  1.0000  1.0000  -0.5683   0.0000   0.0932
   2.200   0.1025   0.02839   0.01207   0.0150  1.0000  1.0000  -0.5824   0.0000   0.0963
   2.300   0.1074   0.02863   0.01235   0.0154  1.0000  1.0000  -0.5974   0.0000   0.0995
   2.400   0.1122   0.02889   0.01264   0.0157  1.0000  1.0000  -0.6124   0.0000   0.1026
   2.500   0.1169   0.02917   0.01296   0.0160  1.0000  1.0000  -0.6272   0.0000   0.1058
   2.600   0.1216   0.02947   0.01329   0.0163  1.0000  1.0000  -0.6430   0.0000   0.1090
   2.700   0.1263   0.02979   0.01364   0.0165  1.0000  1.0000  -0.6587   0.0000   0.1122
   2.800   0.1310   0.03012   0.01404   0.0167  1.0000  1.0000  -0.6741   0.0000   0.1154
   2.900   0.1356   0.03048   0.01444   0.0168  1.0000  1.0000  -0.6900   0.0000   0.1187
   3.000   0.1401   0.03085   0.01485   0.0169  1.0000  1.0000  -0.7063   0.0000   0.1220
   3.100   0.1446   0.03125   0.01529   0.0169  1.0000  1.0000  -0.7224   0.0000   0.1253
   3.200   0.1490   0.03166   0.01576   0.0169  1.0000  1.0000  -0.7381   0.0000   0.1287
   3.300   0.1533   0.03210   0.01624   0.0169  1.0000  1.0000  -0.7538   0.0000   0.1320
   3.400   0.1576   0.03257   0.01675   0.0168  1.0000  1.0000  -0.7703   0.0000   0.1355
   3.500   0.1618   0.03305   0.01729   0.0167  1.0000  1.0000  -0.7864   0.0000   0.1389
   3.600   0.1659   0.03357   0.01785   0.0166  1.0000  1.0000  -0.8022   0.0000   0.1424
   3.700   0.1700   0.03410   0.01844   0.0164  1.0000  1.0000  -0.8175   0.0000   0.1459
   3.800   0.1739   0.03466   0.01905   0.0161  1.0000  1.0000  -0.8323   0.0000   0.1494
   3.900   0.1778   0.03525   0.01969   0.0158  1.0000  1.0000  -0.8479   0.0000   0.1530
   4.000   0.1816   0.03586   0.02036   0.0155  1.0000  1.0000  -0.8633   0.0000   0.1566
   4.100   0.1854   0.03650   0.02105   0.0151  1.0000  1.0000  -0.8782   0.0000   0.1602
   4.200   0.1891   0.03717   0.02178   0.0147  1.0000  1.0000  -0.8926   0.0000   0.1639
   4.300   0.1927   0.03787   0.02253   0.0143  1.0000  1.0000  -0.9064   0.0000   0.1676
   4.400   0.1962   0.03859   0.02334   0.0138  1.0000  1.0000  -0.9197   0.0000   0.1714
   4.500   0.1997   0.03934   0.02415   0.0133  1.0000  1.0000  -0.9324   0.0000   0.1751
   4.600   0.2031   0.04012   0.02498   0.0127  1.0000  1.0000  -0.9453   0.0000   0.1789
   4.700   0.2064   0.04093   0.02585   0.0121  1.0000  1.0000  -0.9583   0.0000   0.1827
   4.800   0.2097   0.04176   0.02674   0.0115  1.0000  1.0000  -0.9707   0.0000   0.1865
   4.900   0.3292   0.04716   0.03300  -0.0124  0.9094  1.0000  -1.1851   0.0000   0.2813
   5.000   0.4143   0.04988   0.03649  -0.0247  0.8259  1.0000  -1.3585   0.0000   0.3043
   5.100   0.4750   0.05112   0.03832  -0.0300  0.7536  1.0000  -1.5000   0.0000   0.3083
   5.300   0.5638   0.05114   0.03916  -0.0288  0.6322  1.0000  -1.7347   0.0000   0.2967
   5.500   0.5955   0.05180   0.04000  -0.0240  0.5691  1.0000  -1.8415   0.0000   0.2861
   5.600   0.6010   0.05280   0.04103  -0.0226  0.5493  1.0000  -1.8613   0.0000   0.2834
   5.700   0.6137   0.05329   0.04156  -0.0204  0.5250  1.0000  -1.9055   0.0000   0.2789
   5.900   0.6245   0.05551   0.04384  -0.0180  0.4931  1.0000  -1.9397   0.0000   0.2745
   6.000   0.6302   0.05666   0.04501  -0.0169  0.4787  1.0000  -1.9568   0.0000   0.2725
   6.100   0.6356   0.05788   0.04626  -0.0160  0.4659  1.0000  -1.9720   0.0000   0.2707
   6.200   0.6417   0.05907   0.04747  -0.0150  0.4534  1.0000  -1.9892   0.0000   0.2689
   6.300   0.6489   0.06021   0.04866  -0.0139  0.4411  1.0000  -2.0095   0.0000   0.2670
   6.400   0.6452   0.06229   0.05077  -0.0145  0.4373  1.0000  -1.9893   0.0000   0.2679
   6.500   0.6524   0.06351   0.05201  -0.0136  0.4268  1.0000  -2.0084   0.0000   0.2662
   6.600   0.6484   0.06560   0.05412  -0.0142  0.4239  1.0000  -1.9873   0.0000   0.2672
   6.700   0.6568   0.06679   0.05533  -0.0132  0.4137  1.0000  -2.0095   0.0000   0.2654
   6.800   0.6524   0.06897   0.05751  -0.0140  0.4124  1.0000  -1.9861   0.0000   0.2667
   6.900   0.6485   0.07110   0.05964  -0.0147  0.4111  1.0000  -1.9646   0.0000   0.2679
   7.000   0.6451   0.07318   0.06172  -0.0154  0.4098  1.0000  -1.9447   0.0000   0.2690
   7.100   0.6422   0.07522   0.06374  -0.0161  0.4085  1.0000  -1.9273   0.0000   0.2701
   7.300   0.6475   0.07868   0.06722  -0.0161  0.4000  1.0000  -1.9341   0.0000   0.2697
   7.400   0.6443   0.08079   0.06930  -0.0169  0.4001  1.0000  -1.9153   0.0000   0.2710
   7.500   0.6417   0.08289   0.07138  -0.0177  0.4003  1.0000  -1.8980   0.0000   0.2723
   7.600   0.6396   0.08497   0.07344  -0.0185  0.4007  1.0000  -1.8822   0.0000   0.2736
   7.700   0.6380   0.08704   0.07549  -0.0193  0.4012  1.0000  -1.8679   0.0000   0.2749
   8.000   0.6175   0.09343   0.08171  -0.0229  0.4136  1.0000  -1.7770   0.0000   0.2813
   8.100   0.6186   0.09544   0.08370  -0.0236  0.4147  1.0000  -1.7700   0.0000   0.2822
   8.300   0.6064   0.09955   0.08771  -0.0261  0.4276  1.0000  -1.7119   0.0000   0.2869
   8.500   0.5994   0.10374   0.09185  -0.0287  0.4436  1.0000  -1.6658   0.0000   0.2916
   8.600   0.5941   0.10591   0.09396  -0.0303  0.4562  1.0000  -1.6360   0.0000   0.2947
   8.900   0.4221   0.10366   0.09086  -0.0385  0.8901  1.0000  -1.2245   0.0000   0.3317
   9.000   0.4217   0.10447   0.09168  -0.0382  0.8845  1.0000  -1.2206   0.0000   0.3309
   9.100   0.4337   0.10735   0.09461  -0.0404  0.8782  1.0000  -1.2305   0.0000   0.3336
   9.200   0.4342   0.10822   0.09551  -0.0402  0.8702  1.0000  -1.2275   0.0000   0.3329
   9.300   0.4406   0.11014   0.09745  -0.0411  0.8622  1.0000  -1.2308   0.0000   0.3337
   9.400   0.4511   0.11272   0.10008  -0.0428  0.8522  1.0000  -1.2386   0.0000   0.3352
   9.500   0.4580   0.11462   0.10202  -0.0436  0.8417  1.0000  -1.2423   0.0000   0.3357
   9.600   0.4598   0.11572   0.10314  -0.0436  0.8327  1.0000  -1.2404   0.0000   0.3351
   9.700   0.4666   0.11774   0.10518  -0.0444  0.8234  1.0000  -1.2437   0.0000   0.3356
   9.800   0.4773   0.12039   0.10787  -0.0459  0.8129  1.0000  -1.2517   0.0000   0.3366
   9.900   0.4848   0.12244   0.10995  -0.0467  0.8014  1.0000  -1.2600   0.0000   0.3369
  10.000   0.4851   0.12325   0.11077  -0.0463  0.7920  1.0000  -1.2589   0.0000   0.3358
  10.100   0.4917   0.12528   0.11282  -0.0470  0.7834  1.0000  -1.2653   0.0000   0.3360
  10.200   0.5033   0.12817   0.11575  -0.0485  0.7725  1.0000  -1.2782   0.0000   0.3367
  10.300   0.5048   0.12909   0.11669  -0.0482  0.7618  1.0000  -1.2786   0.0000   0.3358
  10.400   0.5072   0.13034   0.11794  -0.0481  0.7528  1.0000  -1.2795   0.0000   0.3351
  10.500   0.5171   0.13301   0.12064  -0.0492  0.7434  1.0000  -1.2897   0.0000   0.3355
  10.600   0.5223   0.13464   0.12230  -0.0495  0.7328  1.0000  -1.2942   0.0000   0.3350
  10.700   0.5227   0.13554   0.12323  -0.0491  0.7250  1.0000  -1.2923   0.0000   0.3342
  10.800   0.5341   0.13856   0.12628  -0.0504  0.7156  1.0000  -1.3038   0.0000   0.3346
  10.900   0.5350   0.13934   0.12706  -0.0500  0.7056  1.0000  -1.3027   0.0000   0.3336
  11.000   0.5380   0.14076   0.12849  -0.0500  0.6975  1.0000  -1.3037   0.0000   0.3330
  11.100   0.5503   0.14400   0.13176  -0.0512  0.6873  1.0000  -1.3161   0.0000   0.3333
  11.200   0.5476   0.14405   0.13180  -0.0504  0.6786  1.0000  -1.3100   0.0000   0.3321
  11.300   0.5549   0.14639   0.13416  -0.0510  0.6711  1.0000  -1.3157   0.0000   0.3320
  11.400   0.5592   0.14786   0.13565  -0.0511  0.6616  1.0000  -1.3179   0.0000   0.3314
  11.500   0.5616   0.14921   0.13700  -0.0511  0.6551  1.0000  -1.3171   0.0000   0.3310
  11.600   0.5716   0.15196   0.13979  -0.0519  0.6453  1.0000  -1.3260   0.0000   0.3308
  11.700   0.5689   0.15212   0.13992  -0.0513  0.6387  1.0000  -1.3190   0.0000   0.3300
  11.800   0.5817   0.15566   0.14349  -0.0524  0.6292  1.0000  -1.3350   0.0000   0.3300
  11.900   0.5773   0.15525   0.14307  -0.0515  0.6218  1.0000  -1.3277   0.0000   0.3290
  12.000   0.5874   0.15827   0.14612  -0.0524  0.6139  1.0000  -1.3420   0.0000   0.3289
  12.100   0.5862   0.15854   0.14638  -0.0519  0.6057  1.0000  -1.3396   0.0000   0.3282
  12.200   0.5948   0.16129   0.14915  -0.0526  0.5990  1.0000  -1.3509   0.0000   0.3281
  12.300   0.5940   0.16163   0.14948  -0.0522  0.5914  1.0000  -1.3486   0.0000   0.3274
  12.400   0.6039   0.16477   0.15264  -0.0530  0.5850  1.0000  -1.3618   0.0000   0.3274
  12.500   0.6010   0.16460   0.15246  -0.0525  0.5781  1.0000  -1.3559   0.0000   0.3267
  12.600   0.6129   0.16821   0.15612  -0.0534  0.5708  1.0000  -1.3719   0.0000   0.3266
  12.700   0.6086   0.16765   0.15554  -0.0528  0.5645  1.0000  -1.3634   0.0000   0.3261
  12.800   0.6213   0.17150   0.15943  -0.0537  0.5565  1.0000  -1.3809   0.0000   0.3258
  12.900   0.6162   0.17072   0.15862  -0.0531  0.5507  1.0000  -1.3709   0.0000   0.3254
  13.000   0.6300   0.17486   0.16280  -0.0541  0.5422  1.0000  -1.3898   0.0000   0.3251
  13.100   0.6241   0.17384   0.16175  -0.0535  0.5372  1.0000  -1.3781   0.0000   0.3248
  13.200   0.6352   0.17723   0.16519  -0.0541  0.5288  1.0000  -1.3930   0.0000   0.3243
  13.300   0.6328   0.17721   0.16513  -0.0539  0.5245  1.0000  -1.3857   0.0000   0.3242
  13.400   0.6370   0.17872   0.16665  -0.0541  0.5171  1.0000  -1.3897   0.0000   0.3238
  13.500   0.6440   0.18134   0.16928  -0.0546  0.5123  1.0000  -1.3965   0.0000   0.3237
  13.600   0.6418   0.18113   0.16905  -0.0544  0.5066  1.0000  -1.3898   0.0000   0.3235
  13.700   0.6544   0.18518   0.17316  -0.0552  0.4997  1.0000  -1.4059   0.0000   0.3231
  13.800   0.6506   0.18462   0.17255  -0.0550  0.4959  1.0000  -1.3958   0.0000   0.3232
  13.900   0.6542   0.18595   0.17389  -0.0552  0.4889  1.0000  -1.3982   0.0000   0.3229
  14.000   0.6617   0.18876   0.17671  -0.0557  0.4838  1.0000  -1.4055   0.0000   0.3226
  14.100   0.6595   0.18841   0.17635  -0.0556  0.4782  1.0000  -1.3980   0.0000   0.3226
  14.200   0.6734   0.19314   0.18111  -0.0563  0.4708  1.0000  -1.4162   0.0000   0.3220
  14.300   0.6680   0.19181   0.17976  -0.0562  0.4673  1.0000  -1.4027   0.0000   0.3223
  14.400   0.6720   0.19324   0.18119  -0.0564  0.4604  1.0000  -1.4062   0.0000   0.3220
  14.600   0.6771   0.19562   0.18358  -0.0569  0.4507  1.0000  -1.4128   0.0000   0.3219
  14.700   0.6864   0.19884   0.18685  -0.0573  0.4441  1.0000  -1.4302   0.0000   0.3214
  14.800   0.6875   0.19971   0.18769  -0.0576  0.4409  1.0000  -1.4297   0.0000   0.3216
  14.900   0.6874   0.19983   0.18781  -0.0578  0.4357  1.0000  -1.4275   0.0000   0.3217
  15.000   0.6968   0.20322   0.19123  -0.0582  0.4301  1.0000  -1.4444   0.0000   0.3212
  15.100   0.6980   0.20409   0.19207  -0.0586  0.4272  1.0000  -1.4435   0.0000   0.3214
  15.200   0.6976   0.20405   0.19203  -0.0588  0.4224  1.0000  -1.4400   0.0000   0.3217
  15.300   0.7062   0.20719   0.19520  -0.0592  0.4166  1.0000  -1.4553   0.0000   0.3212
  15.400   0.7085   0.20841   0.19640  -0.0596  0.4136  1.0000  -1.4562   0.0000   0.3214
  15.500   0.7079   0.20824   0.19622  -0.0599  0.4089  1.0000  -1.4518   0.0000   0.3217
  15.600   0.7164   0.21140   0.19941  -0.0602  0.4030  1.0000  -1.4668   0.0000   0.3211
  15.700   0.7186   0.21258   0.20058  -0.0607  0.3999  1.0000  -1.4672   0.0000   0.3214
  15.800   0.7182   0.21239   0.20037  -0.0610  0.3953  1.0000  -1.4627   0.0000   0.3217
  15.900   0.7266   0.21558   0.20360  -0.0613  0.3894  1.0000  -1.4773   0.0000   0.3211
  16.000   0.7289   0.21680   0.20479  -0.0618  0.3865  1.0000  -1.4776   0.0000   0.3214
  16.100   0.7285   0.21653   0.20451  -0.0622  0.3821  1.0000  -1.4723   0.0000   0.3218
  16.200   0.7356   0.21926   0.20727  -0.0625  0.3765  1.0000  -1.4841   0.0000   0.3213
  16.300   0.7401   0.22135   0.20935  -0.0630  0.3735  1.0000  -1.4884   0.0000   0.3214
  16.500   0.7436   0.22245   0.21047  -0.0638  0.3649  1.0000  -1.4865   0.0000   0.3219
  16.600   0.7530   0.22672   0.21476  -0.0642  0.3611  1.0000  -1.5019   0.0000   0.3213
  16.700   0.7507   0.22557   0.21358  -0.0648  0.3588  1.0000  -1.4907   0.0000   0.3221
  16.800   0.7522   0.22598   0.21400  -0.0653  0.3547  1.0000  -1.4884   0.0000   0.3225
  16.900   0.7587   0.22861   0.21665  -0.0656  0.3504  1.0000  -1.4978   0.0000   0.3221
  17.000   0.7648   0.23151   0.21954  -0.0661  0.3476  1.0000  -1.5050   0.0000   0.3220
  17.100   0.7634   0.23059   0.21861  -0.0667  0.3449  1.0000  -1.4951   0.0000   0.3228
  17.200   0.7659   0.23139   0.21941  -0.0672  0.3408  1.0000  -1.4948   0.0000   0.3230
  17.300   0.7741   0.23496   0.22301  -0.0675  0.3364  1.0000  -1.5078   0.0000   0.3224
  17.400   0.7767   0.23617   0.22420  -0.0681  0.3342  1.0000  -1.5064   0.0000   0.3228
  17.500   0.7762   0.23558   0.22360  -0.0688  0.3310  1.0000  -1.4983   0.0000   0.3235
  17.600   0.7800   0.23694   0.22497  -0.0692  0.3267  1.0000  -1.5008   0.0000   0.3235
  17.700   0.7906   0.24214   0.23020  -0.0694  0.3225  1.0000  -1.5228   0.0000   0.3226
  17.800   0.7886   0.24074   0.22877  -0.0702  0.3207  1.0000  -1.5127   0.0000   0.3236
  17.900   0.7894   0.24064   0.22867  -0.0709  0.3172  1.0000  -1.5109   0.0000   0.3242
  18.000   0.7945   0.24265   0.23069  -0.0713  0.3128  1.0000  -1.5220   0.0000   0.3240
  18.100   0.8025   0.24673   0.23481  -0.0716  0.3095  1.0000  -1.5407   0.0000   0.3235
  18.200   0.8013   0.24555   0.23360  -0.0725  0.3075  1.0000  -1.5317   0.0000   0.3245
  18.300   0.8029   0.24581   0.23386  -0.0731  0.3039  1.0000  -1.5317   0.0000   0.3249
  18.400   0.8084   0.24809   0.23616  -0.0735  0.2999  1.0000  -1.5436   0.0000   0.3247
  18.500   0.8158   0.25202   0.24010  -0.0738  0.2971  1.0000  -1.5603   0.0000   0.3242
  18.600   0.8150   0.25089   0.23895  -0.0748  0.2953  1.0000  -1.5513   0.0000   0.3252
  18.700   0.8165   0.25104   0.23909  -0.0755  0.2921  1.0000  -1.5499   0.0000   0.3258
  18.800   0.8208   0.25276   0.24083  -0.0760  0.2886  1.0000  -1.5578   0.0000   0.3258
  18.900   0.8291   0.25714   0.24525  -0.0762  0.2855  1.0000  -1.5775   0.0000   0.3251
  19.000   0.8302   0.25722   0.24530  -0.0771  0.2841  1.0000  -1.5733   0.0000   0.3258
  19.100   0.8307   0.25668   0.24475  -0.0780  0.2819  1.0000  -1.5674   0.0000   0.3267
  19.200   0.8333   0.25744   0.24551  -0.0787  0.2787  1.0000  -1.5690   0.0000   0.3270
  19.300   0.8385   0.25968   0.24778  -0.0791  0.2755  1.0000  -1.5789   0.0000   0.3269
  19.400   0.8465   0.26427   0.25238  -0.0793  0.2729  1.0000  -1.5972   0.0000   0.3262
  19.500   0.8460   0.26309   0.25118  -0.0804  0.2716  1.0000  -1.5872   0.0000   0.3273
  19.600   0.8471   0.26283   0.25091  -0.0813  0.2691  1.0000  -1.5826   0.0000   0.3280
  19.700   0.8503   0.26388   0.25197  -0.0819  0.2660  1.0000  -1.5855   0.0000   0.3283
  19.800   0.8562   0.26675   0.25487  -0.0823  0.2628  1.0000  -1.5979   0.0000   0.3279
  19.900   0.8618   0.26991   0.25804  -0.0827  0.2607  1.0000  -1.6078   0.0000   0.3277
  20.000   0.8619   0.26884   0.25696  -0.0838  0.2591  1.0000  -1.5984   0.0000   0.3287


