xflr5 v6.47

 Calculated polar for: NACA 0010

 1 1 Reynolds number fixed          Mach number fixed         

 xtrf =   1.000 (top)        1.000 (bottom)
 Mach =   0.000     Re =     1.600 e 6     Ncrit =   9.000

  alpha     CL        CD       CDp       Cm    Top Xtr Bot Xtr   Cpmin    Chinge    XCp    
 ------- -------- --------- --------- -------- ------- ------- -------- --------- ---------
 -10.000  -1.0829   0.01404   0.00882  -0.0045  1.0000  0.0122  -7.1892   0.0000   0.2360
  -9.900  -1.0741   0.01376   0.00851  -0.0042  1.0000  0.0125  -7.0854   0.0000   0.2364
  -9.800  -1.0649   0.01354   0.00829  -0.0039  1.0000  0.0128  -6.9742   0.0000   0.2368
  -9.700  -1.0553   0.01336   0.00810  -0.0037  1.0000  0.0130  -6.8600   0.0000   0.2371
  -9.600  -1.0457   0.01320   0.00793  -0.0034  1.0000  0.0133  -6.7449   0.0000   0.2374
  -9.500  -1.0360   0.01305   0.00777  -0.0032  1.0000  0.0135  -6.6298   0.0000   0.2377
  -9.400  -1.0262   0.01291   0.00762  -0.0030  1.0000  0.0137  -6.5152   0.0000   0.2380
  -9.300  -1.0164   0.01277   0.00747  -0.0028  1.0000  0.0139  -6.4015   0.0000   0.2382
  -9.200  -1.0066   0.01263   0.00732  -0.0026  1.0000  0.0142  -6.2887   0.0000   0.2386
  -9.100  -0.9968   0.01250   0.00718  -0.0024  1.0000  0.0144  -6.1767   0.0000   0.2389
  -9.000  -0.9869   0.01238   0.00704  -0.0022  1.0000  0.0146  -6.0652   0.0000   0.2392
  -8.900  -0.9770   0.01226   0.00691  -0.0020  1.0000  0.0148  -5.9539   0.0000   0.2395
  -8.800  -0.9671   0.01215   0.00679  -0.0018  1.0000  0.0149  -5.8429   0.0000   0.2398
  -8.700  -0.9575   0.01201   0.00664  -0.0015  1.0000  0.0151  -5.7360   0.0000   0.2401
  -8.600  -0.9486   0.01176   0.00637  -0.0011  1.0000  0.0157  -5.6398   0.0000   0.2407
  -8.500  -0.9393   0.01160   0.00620  -0.0008  1.0000  0.0162  -5.5359   0.0000   0.2411
  -8.400  -0.9297   0.01146   0.00607  -0.0006  1.0000  0.0166  -5.4297   0.0000   0.2415
  -8.300  -0.9201   0.01134   0.00595  -0.0003  1.0000  0.0169  -5.3236   0.0000   0.2419
  -8.200  -0.9105   0.01124   0.00584  -0.0000  1.0000  0.0173  -5.2183   0.0000   0.2423
  -8.100  -0.9008   0.01113   0.00573   0.0003  1.0000  0.0177  -5.1142   0.0000   0.2427
  -8.000  -0.8912   0.01103   0.00562   0.0005  1.0000  0.0180  -5.0111   0.0000   0.2431
  -7.900  -0.8816   0.01093   0.00551   0.0008  1.0000  0.0183  -4.9088   0.0000   0.2436
  -7.800  -0.8718   0.01085   0.00542   0.0011  1.0000  0.0185  -4.8066   0.0000   0.2440
  -7.700  -0.8629   0.01065   0.00521   0.0015  1.0000  0.0192  -4.7144   0.0000   0.2446
  -7.600  -0.8537   0.01051   0.00507   0.0019  1.0000  0.0198  -4.6180   0.0000   0.2452
  -7.500  -0.8444   0.01039   0.00495   0.0022  1.0000  0.0203  -4.5203   0.0000   0.2457
  -7.400  -0.8349   0.01029   0.00485   0.0026  1.0000  0.0209  -4.4229   0.0000   0.2462
  -7.300  -0.8255   0.01019   0.00475   0.0029  1.0000  0.0214  -4.3261   0.0000   0.2467
  -7.200  -0.8160   0.01011   0.00466   0.0032  1.0000  0.0218  -4.2301   0.0000   0.2473
  -7.100  -0.8065   0.01003   0.00457   0.0036  1.0000  0.0222  -4.1346   0.0000   0.2479
  -7.000  -0.7974   0.00989   0.00443   0.0040  1.0000  0.0230  -4.0442   0.0000   0.2485
  -6.900  -0.7883   0.00977   0.00432   0.0044  1.0000  0.0238  -3.9596   0.0000   0.2492
  -6.800  -0.7791   0.00967   0.00422   0.0048  1.0000  0.0246  -3.8760   0.0000   0.2498
  -6.700  -0.7698   0.00958   0.00413   0.0051  1.0000  0.0254  -3.7925   0.0000   0.2505
  -6.600  -0.7605   0.00950   0.00405   0.0055  1.0000  0.0260  -3.7093   0.0000   0.2511
  -6.500  -0.7512   0.00942   0.00396   0.0059  1.0000  0.0268  -3.6279   0.0000   0.2518
  -6.400  -0.7423   0.00930   0.00385   0.0063  1.0000  0.0281  -3.5486   0.0000   0.2526
  -6.300  -0.7331   0.00920   0.00377   0.0067  1.0000  0.0292  -3.4683   0.0000   0.2533
  -6.200  -0.7239   0.00913   0.00369   0.0071  1.0000  0.0302  -3.3884   0.0000   0.2540
  -6.100  -0.7116   0.00904   0.00361   0.0068  0.9997  0.0312  -3.2976   0.0000   0.2539
  -6.000  -0.6982   0.00891   0.00350   0.0063  0.9993  0.0330  -3.2043   0.0000   0.2534
  -5.900  -0.6847   0.00882   0.00341   0.0057  0.9988  0.0346  -3.1106   0.0000   0.2528
  -5.800  -0.6712   0.00873   0.00332   0.0051  0.9983  0.0362  -3.0177   0.0000   0.2522
  -5.700  -0.6577   0.00862   0.00323   0.0046  0.9979  0.0385  -2.9262   0.0000   0.2516
  -5.600  -0.6440   0.00853   0.00315   0.0040  0.9975  0.0405  -2.8346   0.0000   0.2509
  -5.500  -0.6308   0.00842   0.00306   0.0035  0.9969  0.0432  -2.7460   0.0000   0.2504
  -5.400  -0.6174   0.00833   0.00298   0.0030  0.9962  0.0459  -2.6575   0.0000   0.2497
  -5.300  -0.6041   0.00822   0.00289   0.0025  0.9955  0.0493  -2.5719   0.0000   0.2490
  -5.200  -0.5906   0.00813   0.00282   0.0019  0.9949  0.0524  -2.4927   0.0000   0.2483
  -5.100  -0.5770   0.00802   0.00273   0.0014  0.9943  0.0564  -2.4144   0.0000   0.2474
  -5.000  -0.5634   0.00792   0.00266   0.0008  0.9938  0.0605  -2.3365   0.0000   0.2465
  -4.900  -0.5496   0.00782   0.00258   0.0002  0.9933  0.0649  -2.2590   0.0000   0.2455
  -4.800  -0.5360   0.00771   0.00251  -0.0004  0.9927  0.0703  -2.1830   0.0000   0.2445
  -4.700  -0.5231   0.00760   0.00243  -0.0008  0.9916  0.0763  -2.1099   0.0000   0.2437
  -4.600  -0.5099   0.00749   0.00236  -0.0013  0.9906  0.0830  -2.0365   0.0000   0.2428
  -4.500  -0.4964   0.00738   0.00228  -0.0019  0.9898  0.0901  -1.9634   0.0000   0.2416
  -4.400  -0.4829   0.00727   0.00221  -0.0024  0.9890  0.0976  -1.8908   0.0000   0.2404
  -4.300  -0.4695   0.00717   0.00214  -0.0030  0.9881  0.1057  -1.8216   0.0000   0.2392
  -4.200  -0.4561   0.00705   0.00207  -0.0035  0.9872  0.1150  -1.7575   0.0000   0.2379
  -4.100  -0.4442   0.00694   0.00200  -0.0037  0.9851  0.1248  -1.6979   0.0000   0.2374
  -3.900  -0.4195   0.00672   0.00188  -0.0043  0.9814  0.1461  -1.5782   0.0000   0.2355
  -3.800  -0.4072   0.00661   0.00182  -0.0045  0.9794  0.1573  -1.5196   0.0000   0.2347
  -3.700  -0.3961   0.00650   0.00176  -0.0045  0.9762  0.1693  -1.4643   0.0000   0.2344
  -3.600  -0.3843   0.00640   0.00170  -0.0047  0.9737  0.1822  -1.4084   0.0000   0.2337
  -3.500  -0.3731   0.00629   0.00164  -0.0047  0.9705  0.1947  -1.3590   0.0000   0.2333
  -3.400  -0.3622   0.00619   0.00159  -0.0046  0.9667  0.2073  -1.3107   0.0000   0.2332
  -3.300  -0.3512   0.00609   0.00154  -0.0046  0.9634  0.2209  -1.2626   0.0000   0.2329
  -3.200  -0.3407   0.00599   0.00149  -0.0044  0.9588  0.2346  -1.2161   0.0000   0.2330
  -3.100  -0.3300   0.00590   0.00144  -0.0043  0.9549  0.2480  -1.1697   0.0000   0.2331
  -2.900  -0.3093   0.00573   0.00135  -0.0039  0.9451  0.2753  -1.0849   0.0000   0.2336
  -2.800  -0.2989   0.00564   0.00131  -0.0037  0.9394  0.2893  -1.0442   0.0000   0.2338
  -2.700  -0.2886   0.00556   0.00127  -0.0035  0.9341  0.3035  -1.0040   0.0000   0.2341
  -2.600  -0.2781   0.00548   0.00123  -0.0033  0.9278  0.3174  -0.9640   0.0000   0.2344
  -2.500  -0.2677   0.00541   0.00119  -0.0031  0.9219  0.3317  -0.9276   0.0000   0.2347
  -2.400  -0.2573   0.00534   0.00115  -0.0029  0.9151  0.3458  -0.8915   0.0000   0.2350
  -2.300  -0.2467   0.00528   0.00112  -0.0028  0.9083  0.3598  -0.8556   0.0000   0.2352
  -2.200  -0.2363   0.00522   0.00108  -0.0026  0.9013  0.3739  -0.8216   0.0000   0.2355
  -2.100  -0.2257   0.00516   0.00105  -0.0024  0.8936  0.3878  -0.7890   0.0000   0.2357
  -1.900  -0.2046   0.00506   0.00099  -0.0021  0.8778  0.4160  -0.7265   0.0000   0.2363
  -1.800  -0.1939   0.00500   0.00097  -0.0020  0.8691  0.4300  -0.6970   0.0000   0.2364
  -1.700  -0.1832   0.00496   0.00094  -0.0018  0.8604  0.4440  -0.6684   0.0000   0.2366
  -1.600  -0.1726   0.00492   0.00091  -0.0017  0.8514  0.4580  -0.6415   0.0000   0.2369
  -1.500  -0.1619   0.00488   0.00089  -0.0015  0.8418  0.4719  -0.6153   0.0000   0.2371
  -1.400  -0.1512   0.00484   0.00087  -0.0014  0.8320  0.4859  -0.5905   0.0000   0.2372
  -1.200  -0.1297   0.00478   0.00083  -0.0012  0.8120  0.5135  -0.5438   0.0000   0.2375
  -1.100  -0.1190   0.00476   0.00082  -0.0011  0.8013  0.5272  -0.5225   0.0000   0.2377
  -1.000  -0.1082   0.00473   0.00080  -0.0010  0.7904  0.5409  -0.5020   0.0000   0.2378
  -0.900  -0.0974   0.00471   0.00079  -0.0009  0.7795  0.5545  -0.4824   0.0000   0.2379
  -0.800  -0.0866   0.00469   0.00078  -0.0008  0.7683  0.5680  -0.4638   0.0000   0.2380
  -0.700  -0.0758   0.00467   0.00076  -0.0006  0.7570  0.5813  -0.4463   0.0000   0.2382
  -0.600  -0.0651   0.00466   0.00076  -0.0005  0.7452  0.5945  -0.4297   0.0000   0.2384
  -0.500  -0.0542   0.00464   0.00075  -0.0005  0.7332  0.6076  -0.4138   0.0000   0.2384
  -0.400  -0.0434   0.00463   0.00074  -0.0004  0.7213  0.6207  -0.3987   0.0000   0.2383
  -0.300  -0.0325   0.00463   0.00074  -0.0003  0.7092  0.6336  -0.3843   0.0000   0.2383
  -0.200  -0.0217   0.00462   0.00073  -0.0002  0.6971  0.6464  -0.3706   0.0000   0.2382
   0.000   0.0000   0.00462   0.00073  -0.0000  0.6721  0.6721  -0.3449   0.0000   0.4329
   0.200   0.0217   0.00462   0.00073   0.0002  0.6464  0.6971  -0.3706   0.0000   0.2382
   0.300   0.0325   0.00463   0.00074   0.0003  0.6336  0.7092  -0.3843   0.0000   0.2383
   0.400   0.0434   0.00463   0.00074   0.0004  0.6207  0.7213  -0.3987   0.0000   0.2383
   0.500   0.0542   0.00464   0.00075   0.0005  0.6076  0.7332  -0.4138   0.0000   0.2384
   0.700   0.0758   0.00467   0.00076   0.0006  0.5813  0.7570  -0.4463   0.0000   0.2382
   0.800   0.0866   0.00469   0.00078   0.0008  0.5680  0.7683  -0.4638   0.0000   0.2380
   0.900   0.0974   0.00471   0.00079   0.0009  0.5545  0.7795  -0.4824   0.0000   0.2379
   1.000   0.1082   0.00473   0.00080   0.0010  0.5409  0.7904  -0.5020   0.0000   0.2378
   1.100   0.1190   0.00476   0.00082   0.0011  0.5272  0.8013  -0.5225   0.0000   0.2377
   1.200   0.1297   0.00478   0.00083   0.0012  0.5135  0.8120  -0.5438   0.0000   0.2375
   1.400   0.1512   0.00484   0.00087   0.0014  0.4859  0.8320  -0.5905   0.0000   0.2372
   1.500   0.1619   0.00488   0.00089   0.0015  0.4719  0.8418  -0.6153   0.0000   0.2371
   1.600   0.1726   0.00492   0.00091   0.0017  0.4580  0.8514  -0.6415   0.0000   0.2369
   1.700   0.1832   0.00496   0.00094   0.0018  0.4440  0.8604  -0.6684   0.0000   0.2366
   1.800   0.1939   0.00500   0.00097   0.0020  0.4300  0.8691  -0.6970   0.0000   0.2364
   1.900   0.2046   0.00506   0.00099   0.0021  0.4160  0.8778  -0.7265   0.0000   0.2363
   2.100   0.2257   0.00516   0.00105   0.0024  0.3878  0.8936  -0.7890   0.0000   0.2357
   2.200   0.2363   0.00522   0.00108   0.0026  0.3739  0.9013  -0.8216   0.0000   0.2355
   2.300   0.2468   0.00528   0.00112   0.0028  0.3598  0.9083  -0.8556   0.0000   0.2352
   2.400   0.2573   0.00534   0.00115   0.0029  0.3458  0.9151  -0.8916   0.0000   0.2350
   2.500   0.2677   0.00541   0.00119   0.0031  0.3317  0.9218  -0.9276   0.0000   0.2347
   2.600   0.2782   0.00548   0.00123   0.0033  0.3174  0.9278  -0.9640   0.0000   0.2344
   2.700   0.2886   0.00556   0.00127   0.0035  0.3035  0.9341  -1.0040   0.0000   0.2341
   2.800   0.2989   0.00564   0.00131   0.0037  0.2893  0.9394  -1.0443   0.0000   0.2338
   2.900   0.3093   0.00573   0.00135   0.0039  0.2753  0.9451  -1.0849   0.0000   0.2336
   3.000   0.3197   0.00582   0.00140   0.0041  0.2615  0.9497  -1.1260   0.0000   0.2333
   3.100   0.3301   0.00590   0.00144   0.0043  0.2480  0.9549  -1.1697   0.0000   0.2331
   3.200   0.3407   0.00599   0.00149   0.0044  0.2346  0.9588  -1.2161   0.0000   0.2331
   3.300   0.3512   0.00609   0.00154   0.0046  0.2209  0.9634  -1.2626   0.0000   0.2329
   3.400   0.3622   0.00619   0.00159   0.0046  0.2073  0.9667  -1.3107   0.0000   0.2332
   3.500   0.3731   0.00629   0.00164   0.0047  0.1947  0.9705  -1.3590   0.0000   0.2333
   3.600   0.3843   0.00640   0.00170   0.0047  0.1822  0.9737  -1.4084   0.0000   0.2337
   3.700   0.3961   0.00650   0.00176   0.0045  0.1693  0.9762  -1.4644   0.0000   0.2344
   3.800   0.4072   0.00661   0.00182   0.0045  0.1573  0.9794  -1.5196   0.0000   0.2347
   3.900   0.4195   0.00672   0.00188   0.0043  0.1461  0.9814  -1.5782   0.0000   0.2355
   4.100   0.4442   0.00694   0.00200   0.0037  0.1248  0.9851  -1.6980   0.0000   0.2374
   4.200   0.4561   0.00705   0.00207   0.0035  0.1150  0.9872  -1.7575   0.0000   0.2379
   4.300   0.4695   0.00717   0.00214   0.0030  0.1057  0.9881  -1.8216   0.0000   0.2392
   4.400   0.4829   0.00727   0.00221   0.0024  0.0976  0.9890  -1.8909   0.0000   0.2404
   4.500   0.4964   0.00738   0.00228   0.0019  0.0901  0.9898  -1.9634   0.0000   0.2416
   4.600   0.5099   0.00749   0.00236   0.0013  0.0830  0.9907  -2.0365   0.0000   0.2428
   4.700   0.5231   0.00760   0.00243   0.0008  0.0763  0.9916  -2.1099   0.0000   0.2437
   4.800   0.5360   0.00771   0.00251   0.0004  0.0703  0.9927  -2.1831   0.0000   0.2445
   4.900   0.5496   0.00782   0.00258  -0.0002  0.0649  0.9933  -2.2591   0.0000   0.2455
   5.000   0.5634   0.00792   0.00266  -0.0008  0.0605  0.9938  -2.3366   0.0000   0.2465
   5.100   0.5771   0.00802   0.00273  -0.0014  0.0564  0.9943  -2.4145   0.0000   0.2474
   5.200   0.5906   0.00813   0.00282  -0.0019  0.0524  0.9949  -2.4927   0.0000   0.2483
   5.300   0.6041   0.00822   0.00289  -0.0025  0.0493  0.9955  -2.5719   0.0000   0.2490
   5.400   0.6175   0.00833   0.00298  -0.0030  0.0459  0.9962  -2.6576   0.0000   0.2497
   5.500   0.6308   0.00842   0.00306  -0.0035  0.0432  0.9969  -2.7461   0.0000   0.2504
   5.600   0.6440   0.00853   0.00315  -0.0040  0.0405  0.9975  -2.8347   0.0000   0.2509
   5.700   0.6577   0.00862   0.00323  -0.0046  0.0385  0.9979  -2.9263   0.0000   0.2516
   5.800   0.6712   0.00873   0.00332  -0.0051  0.0362  0.9984  -3.0178   0.0000   0.2522
   5.900   0.6848   0.00882   0.00340  -0.0057  0.0346  0.9988  -3.1106   0.0000   0.2528
   6.000   0.6983   0.00891   0.00350  -0.0063  0.0330  0.9993  -3.2044   0.0000   0.2534
   6.100   0.7116   0.00904   0.00361  -0.0068  0.0312  0.9997  -3.2977   0.0000   0.2539
   6.200   0.7238   0.00912   0.00369  -0.0070  0.0302  1.0000  -3.3882   0.0000   0.2540
   6.300   0.7330   0.00920   0.00377  -0.0067  0.0292  1.0000  -3.4681   0.0000   0.2533
   6.400   0.7422   0.00930   0.00385  -0.0063  0.0281  1.0000  -3.5483   0.0000   0.2525
   6.500   0.7512   0.00942   0.00396  -0.0059  0.0268  1.0000  -3.6277   0.0000   0.2518
   6.600   0.7604   0.00950   0.00405  -0.0055  0.0260  1.0000  -3.7090   0.0000   0.2511
   6.700   0.7698   0.00958   0.00413  -0.0051  0.0254  1.0000  -3.7923   0.0000   0.2504
   6.800   0.7791   0.00967   0.00422  -0.0047  0.0246  1.0000  -3.8757   0.0000   0.2498
   6.900   0.7883   0.00977   0.00432  -0.0044  0.0238  1.0000  -3.9594   0.0000   0.2492
   7.000   0.7974   0.00989   0.00443  -0.0040  0.0230  1.0000  -4.0440   0.0000   0.2485
   7.100   0.8065   0.01003   0.00457  -0.0036  0.0222  1.0000  -4.1343   0.0000   0.2478
   7.200   0.8160   0.01011   0.00466  -0.0032  0.0218  1.0000  -4.2299   0.0000   0.2473
   7.300   0.8254   0.01019   0.00475  -0.0029  0.0214  1.0000  -4.3259   0.0000   0.2467
   7.400   0.8349   0.01029   0.00485  -0.0026  0.0209  1.0000  -4.4227   0.0000   0.2462
   7.500   0.8443   0.01039   0.00495  -0.0022  0.0203  1.0000  -4.5201   0.0000   0.2457
   7.600   0.8537   0.01051   0.00507  -0.0019  0.0198  1.0000  -4.6178   0.0000   0.2451
   7.700   0.8629   0.01065   0.00521  -0.0015  0.0192  1.0000  -4.7142   0.0000   0.2446
   7.800   0.8718   0.01085   0.00542  -0.0011  0.0185  1.0000  -4.8064   0.0000   0.2440
   7.900   0.8815   0.01093   0.00551  -0.0008  0.0183  1.0000  -4.9086   0.0000   0.2436
   8.000   0.8912   0.01103   0.00562  -0.0005  0.0180  1.0000  -5.0110   0.0000   0.2431
   8.100   0.9008   0.01113   0.00573  -0.0003  0.0177  1.0000  -5.1140   0.0000   0.2427
   8.200   0.9104   0.01123   0.00584   0.0000  0.0173  1.0000  -5.2182   0.0000   0.2423
   8.300   0.9201   0.01134   0.00595   0.0003  0.0169  1.0000  -5.3235   0.0000   0.2419
   8.400   0.9297   0.01146   0.00607   0.0006  0.0166  1.0000  -5.4296   0.0000   0.2415
   8.500   0.9392   0.01160   0.00620   0.0008  0.0162  1.0000  -5.5358   0.0000   0.2411
   8.600   0.9486   0.01176   0.00637   0.0011  0.0157  1.0000  -5.6398   0.0000   0.2406
   8.700   0.9575   0.01201   0.00664   0.0015  0.0151  1.0000  -5.7360   0.0000   0.2401
   8.800   0.9671   0.01215   0.00679   0.0018  0.0149  1.0000  -5.8429   0.0000   0.2398
   8.900   0.9771   0.01226   0.00691   0.0020  0.0148  1.0000  -5.9540   0.0000   0.2395
   9.000   0.9869   0.01238   0.00704   0.0022  0.0146  1.0000  -6.0652   0.0000   0.2392
   9.100   0.9968   0.01250   0.00718   0.0024  0.0144  1.0000  -6.1767   0.0000   0.2389
   9.200   1.0066   0.01263   0.00732   0.0026  0.0142  1.0000  -6.2888   0.0000   0.2386
   9.300   1.0164   0.01277   0.00747   0.0028  0.0139  1.0000  -6.4016   0.0000   0.2383
   9.400   1.0262   0.01291   0.00762   0.0030  0.0137  1.0000  -6.5153   0.0000   0.2380
   9.500   1.0360   0.01305   0.00777   0.0032  0.0135  1.0000  -6.6300   0.0000   0.2377
   9.600   1.0457   0.01320   0.00793   0.0034  0.0133  1.0000  -6.7451   0.0000   0.2374
   9.700   1.0554   0.01336   0.00810   0.0037  0.0130  1.0000  -6.8602   0.0000   0.2371
   9.800   1.0649   0.01354   0.00829   0.0039  0.0128  1.0000  -6.9744   0.0000   0.2368
   9.900   1.0742   0.01376   0.00851   0.0041  0.0125  1.0000  -7.0856   0.0000   0.2364
  10.000   1.0829   0.01404   0.00882   0.0045  0.0122  1.0000  -7.1894   0.0000   0.2360
  10.100   1.0909   0.01443   0.00925   0.0049  0.0119  1.0000  -7.2939   0.0000   0.2355
  10.200   1.1008   0.01456   0.00940   0.0051  0.0118  1.0000  -7.4251   0.0000   0.2353
  10.300   1.1105   0.01471   0.00955   0.0053  0.0118  1.0000  -7.5565   0.0000   0.2350
  10.400   1.1202   0.01486   0.00972   0.0055  0.0117  1.0000  -7.6880   0.0000   0.2347
  10.500   1.1299   0.01501   0.00990   0.0057  0.0116  1.0000  -7.8195   0.0000   0.2345
  10.600   1.1394   0.01518   0.01009   0.0059  0.0114  1.0000  -7.9512   0.0000   0.2342
  10.700   1.1489   0.01536   0.01028   0.0061  0.0113  1.0000  -8.0831   0.0000   0.2339
  10.800   1.1583   0.01554   0.01048   0.0063  0.0112  1.0000  -8.2153   0.0000   0.2336
  10.900   1.1676   0.01573   0.01069   0.0065  0.0110  1.0000  -8.3480   0.0000   0.2333
  11.000   1.1770   0.01591   0.01089   0.0068  0.0109  1.0000  -8.4818   0.0000   0.2331
  11.100   1.1863   0.01610   0.01109   0.0070  0.0107  1.0000  -8.6171   0.0000   0.2328
  11.200   1.1956   0.01628   0.01129   0.0072  0.0106  1.0000  -8.7538   0.0000   0.2325
  11.300   1.2049   0.01647   0.01149   0.0074  0.0105  1.0000  -8.8916   0.0000   0.2322
  11.400   1.2141   0.01666   0.01169   0.0076  0.0103  1.0000  -9.0302   0.0000   0.2319
  11.500   1.2232   0.01686   0.01190   0.0079  0.0102  1.0000  -9.1684   0.0000   0.2316
  11.600   1.2321   0.01708   0.01213   0.0081  0.0100  1.0000  -9.3057   0.0000   0.2313
  11.700   1.2408   0.01732   0.01240   0.0084  0.0099  1.0000  -9.4404   0.0000   0.2310
  11.800   1.2490   0.01762   0.01271   0.0088  0.0097  1.0000  -9.5701   0.0000   0.2306
  11.900   1.2566   0.01798   0.01311   0.0092  0.0095  1.0000  -9.6917   0.0000   0.2302
  12.000   1.2631   0.01846   0.01363   0.0097  0.0094  1.0000  -9.8007   0.0000   0.2296
  12.100   1.2678   0.01913   0.01438   0.0105  0.0092  1.0000  -9.8859   0.0000   0.2289
  12.200   1.2765   0.01935   0.01462   0.0108  0.0091  1.0000  -10.0249   0.0000   0.2286
  12.300   1.2851   0.01956   0.01486   0.0110  0.0091  1.0000  -10.1645   0.0000   0.2283
  12.400   1.2936   0.01979   0.01511   0.0113  0.0090  1.0000  -10.3038   0.0000   0.2280
  12.500   1.3020   0.02002   0.01536   0.0116  0.0090  1.0000  -10.4426   0.0000   0.2276
  12.600   1.3102   0.02026   0.01563   0.0119  0.0090  1.0000  -10.5810   0.0000   0.2273
  12.700   1.3183   0.02052   0.01591   0.0123  0.0089  1.0000  -10.7186   0.0000   0.2269
  12.800   1.3263   0.02078   0.01620   0.0126  0.0088  1.0000  -10.8556   0.0000   0.2266
  12.900   1.3341   0.02105   0.01650   0.0130  0.0088  1.0000  -10.9919   0.0000   0.2262
  13.000   1.3417   0.02133   0.01680   0.0134  0.0087  1.0000  -11.1273   0.0000   0.2258
  13.100   1.3492   0.02162   0.01712   0.0137  0.0087  1.0000  -11.2620   0.0000   0.2254
  13.200   1.3565   0.02191   0.01745   0.0141  0.0086  1.0000  -11.3960   0.0000   0.2250
  13.300   1.3637   0.02222   0.01778   0.0146  0.0085  1.0000  -11.5292   0.0000   0.2246
  13.400   1.3706   0.02253   0.01813   0.0150  0.0085  1.0000  -11.6617   0.0000   0.2242
  13.500   1.3775   0.02285   0.01847   0.0155  0.0084  1.0000  -11.7933   0.0000   0.2237
  13.600   1.3841   0.02317   0.01883   0.0159  0.0083  1.0000  -11.9242   0.0000   0.2233
  13.700   1.3905   0.02351   0.01919   0.0164  0.0082  1.0000  -12.0541   0.0000   0.2228
  13.800   1.3968   0.02385   0.01956   0.0169  0.0082  1.0000  -12.1831   0.0000   0.2224
  13.900   1.4028   0.02419   0.01994   0.0174  0.0081  1.0000  -12.3109   0.0000   0.2219
  14.000   1.4086   0.02455   0.02032   0.0179  0.0080  1.0000  -12.4373   0.0000   0.2214
  14.100   1.4140   0.02491   0.02071   0.0185  0.0080  1.0000  -12.5616   0.0000   0.2208
  14.200   1.4185   0.02527   0.02110   0.0193  0.0079  1.0000  -12.6782   0.0000   0.2202
  14.300   1.4223   0.02564   0.02150   0.0201  0.0079  1.0000  -12.7903   0.0000   0.2195
  14.400   1.4258   0.02603   0.02193   0.0209  0.0078  1.0000  -12.8998   0.0000   0.2187
  14.500   1.4291   0.02645   0.02237   0.0218  0.0078  1.0000  -13.0073   0.0000   0.2180
  14.600   1.4321   0.02688   0.02284   0.0226  0.0077  1.0000  -13.1127   0.0000   0.2173
  14.700   1.4349   0.02735   0.02333   0.0233  0.0077  1.0000  -13.2159   0.0000   0.2166
  14.800   1.4374   0.02784   0.02386   0.0241  0.0076  1.0000  -13.3163   0.0000   0.2160
  14.900   1.4396   0.02838   0.02443   0.0248  0.0076  1.0000  -13.4131   0.0000   0.2153
  15.000   1.4414   0.02896   0.02505   0.0254  0.0075  1.0000  -13.5060   0.0000   0.2147
  15.100   1.4427   0.02960   0.02572   0.0260  0.0075  1.0000  -13.5941   0.0000   0.2141
  15.200   1.4437   0.03029   0.02645   0.0266  0.0074  1.0000  -13.6774   0.0000   0.2135
  15.300   1.4442   0.03106   0.02726   0.0271  0.0074  1.0000  -13.7547   0.0000   0.2130
  15.400   1.4441   0.03190   0.02815   0.0274  0.0073  1.0000  -13.8255   0.0000   0.2125
  15.500   1.4435   0.03285   0.02914   0.0277  0.0073  1.0000  -13.8890   0.0000   0.2121
  15.600   1.4422   0.03390   0.03024   0.0279  0.0073  1.0000  -13.9441   0.0000   0.2118
  15.700   1.4403   0.03507   0.03146   0.0279  0.0072  1.0000  -13.9909   0.0000   0.2115
  15.800   1.4376   0.03639   0.03284   0.0278  0.0072  1.0000  -14.0278   0.0000   0.2114
  15.900   1.4343   0.03787   0.03437   0.0275  0.0071  1.0000  -14.0547   0.0000   0.2113
  16.000   1.4303   0.03953   0.03609   0.0270  0.0071  1.0000  -14.0716   0.0000   0.2114
  16.100   1.4255   0.04137   0.03800   0.0262  0.0071  1.0000  -14.0777   0.0000   0.2116
  16.200   1.4201   0.04342   0.04011   0.0252  0.0070  1.0000  -14.0728   0.0000   0.2120
  16.300   1.4139   0.04567   0.04242   0.0240  0.0070  1.0000  -14.0572   0.0000   0.2126
  16.400   1.4072   0.04813   0.04496   0.0225  0.0070  1.0000  -14.0310   0.0000   0.2133
  16.500   1.3998   0.05078   0.04767   0.0209  0.0070  1.0000  -13.9945   0.0000   0.2141
  16.600   1.3918   0.05360   0.05057   0.0191  0.0070  1.0000  -13.9483   0.0000   0.2151
  16.700   1.3833   0.05660   0.05363   0.0172  0.0070  1.0000  -13.8930   0.0000   0.2161
  16.800   1.3742   0.05975   0.05685   0.0151  0.0070  1.0000  -13.8285   0.0000   0.2172
  16.900   1.3645   0.06303   0.06018   0.0131  0.0070  1.0000  -13.7547   0.0000   0.2184
  17.000   1.3543   0.06642   0.06364   0.0110  0.0070  1.0000  -13.6716   0.0000   0.2197
  17.100   1.3435   0.06994   0.06723   0.0089  0.0070  1.0000  -13.5789   0.0000   0.2209
  17.200   1.3321   0.07359   0.07094   0.0068  0.0070  1.0000  -13.4757   0.0000   0.2222
  17.300   1.3199   0.07735   0.07476   0.0047  0.0070  1.0000  -13.3608   0.0000   0.2236
  17.400   1.3069   0.08125   0.07871   0.0026  0.0071  1.0000  -13.2320   0.0000   0.2250
  17.500   1.2929   0.08534   0.08286   0.0003  0.0071  1.0000  -13.0867   0.0000   0.2265
  17.600   1.2780   0.08962   0.08720  -0.0019  0.0071  1.0000  -12.9244   0.0000   0.2281
  17.700   1.2620   0.09406   0.09170  -0.0043  0.0072  1.0000  -12.7435   0.0000   0.2298
  17.800   1.2449   0.09874   0.09645  -0.0067  0.0072  1.0000  -12.5406   0.0000   0.2316
  17.900   1.2268   0.10369   0.10146  -0.0093  0.0073  1.0000  -12.3166   0.0000   0.2337
  18.000   1.2083   0.10880   0.10663  -0.0120  0.0073  1.0000  -12.0777   0.0000   0.2359
  18.100   1.1888   0.11411   0.11200  -0.0148  0.0074  1.0000  -11.8167   0.0000   0.2383
  18.200   1.1699   0.11942   0.11738  -0.0176  0.0074  1.0000  -11.5546   0.0000   0.2408
  18.300   1.1515   0.12478   0.12279  -0.0205  0.0074  1.0000  -11.2880   0.0000   0.2434
  18.400   1.1336   0.13013   0.12820  -0.0234  0.0075  1.0000  -11.0193   0.0000   0.2462
  18.500   1.1166   0.13534   0.13346  -0.0262  0.0075  1.0000  -10.7562   0.0000   0.2489
  18.600   1.1006   0.14048   0.13865  -0.0290  0.0075  1.0000  -10.4969   0.0000   0.2517
  18.700   1.0852   0.14562   0.14384  -0.0318  0.0075  1.0000  -10.2364   0.0000   0.2546
  18.800   1.0702   0.15082   0.14910  -0.0347  0.0076  1.0000  -9.9674   0.0000   0.2577
  18.900   1.0549   0.15622   0.15455  -0.0377  0.0076  1.0000  -9.6782   0.0000   0.2610
  19.000   1.0382   0.16207   0.16045  -0.0410  0.0076  1.0000  -9.3432   0.0000   0.2648
  19.100   1.0121   0.17067   0.16914  -0.0458  0.0076  1.0000  -8.7721   0.0000   0.2708
  19.600   0.5730   0.20093   0.19970  -0.0382  0.0076  1.0000  -1.5664   0.0000   0.3039
  19.700   0.5747   0.20191   0.20069  -0.0386  0.0075  1.0000  -1.5747   0.0000   0.3044
  19.800   0.5764   0.20288   0.20165  -0.0391  0.0074  1.0000  -1.5858   0.0000   0.3049
  19.900   0.5782   0.20382   0.20259  -0.0396  0.0073  1.0000  -1.5996   0.0000   0.3054
  20.000   0.5800   0.20473   0.20351  -0.0401  0.0072  1.0000  -1.6158   0.0000   0.3059


