xflr5 v6.47

 Calculated polar for: NACA 0010

 1 1 Reynolds number fixed          Mach number fixed         

 xtrf =   1.000 (top)        1.000 (bottom)
 Mach =   0.000     Re =     0.200 e 6     Ncrit =   9.000

  alpha     CL        CD       CDp       Cm    Top Xtr Bot Xtr   Cpmin    Chinge    XCp    
 ------- -------- --------- --------- -------- ------- ------- -------- --------- ---------
 -10.000  -0.9769   0.04137   0.03515  -0.0185  1.0000  0.0356  -5.2785   0.0000   0.2218
  -9.900  -0.9751   0.03998   0.03355  -0.0177  1.0000  0.0356  -5.2691   0.0000   0.2227
  -9.800  -0.9720   0.03849   0.03191  -0.0170  1.0000  0.0358  -5.2484   0.0000   0.2235
  -9.700  -0.9671   0.03707   0.03041  -0.0166  1.0000  0.0360  -5.2053   0.0000   0.2239
  -9.600  -0.9610   0.03596   0.02924  -0.0162  1.0000  0.0362  -5.1461   0.0000   0.2243
  -9.500  -0.9538   0.03511   0.02837  -0.0159  1.0000  0.0366  -5.0723   0.0000   0.2246
  -9.400  -0.9464   0.03434   0.02758  -0.0155  1.0000  0.0369  -4.9980   0.0000   0.2249
  -9.300  -0.9396   0.03354   0.02671  -0.0151  1.0000  0.0373  -4.9379   0.0000   0.2254
  -9.200  -0.9329   0.03271   0.02577  -0.0146  1.0000  0.0376  -4.8891   0.0000   0.2259
  -9.100  -0.9262   0.03185   0.02480  -0.0141  1.0000  0.0381  -4.8439   0.0000   0.2264
  -9.000  -0.9194   0.03103   0.02386  -0.0136  1.0000  0.0386  -4.7984   0.0000   0.2270
  -8.900  -0.9126   0.03026   0.02294  -0.0130  1.0000  0.0392  -4.7535   0.0000   0.2276
  -8.800  -0.9060   0.02949   0.02198  -0.0124  1.0000  0.0400  -4.7146   0.0000   0.2283
  -8.700  -0.8996   0.02885   0.02107  -0.0116  1.0000  0.0407  -4.6803   0.0000   0.2291
  -8.600  -0.8914   0.02788   0.02010  -0.0114  1.0000  0.0413  -4.6171   0.0000   0.2293
  -8.500  -0.8825   0.02729   0.01953  -0.0112  1.0000  0.0420  -4.5374   0.0000   0.2295
  -8.400  -0.8737   0.02677   0.01901  -0.0109  1.0000  0.0427  -4.4621   0.0000   0.2298
  -8.300  -0.8649   0.02621   0.01839  -0.0105  1.0000  0.0435  -4.3952   0.0000   0.2302
  -8.200  -0.8563   0.02560   0.01770  -0.0101  1.0000  0.0442  -4.3348   0.0000   0.2306
  -8.100  -0.8476   0.02499   0.01697  -0.0097  1.0000  0.0450  -4.2777   0.0000   0.2311
  -8.000  -0.8389   0.02443   0.01626  -0.0092  1.0000  0.0458  -4.2229   0.0000   0.2317
  -7.900  -0.8301   0.02378   0.01553  -0.0088  1.0000  0.0465  -4.1638   0.0000   0.2321
  -7.800  -0.8210   0.02317   0.01499  -0.0086  1.0000  0.0474  -4.0854   0.0000   0.2323
  -7.700  -0.8120   0.02278   0.01461  -0.0083  1.0000  0.0485  -4.0061   0.0000   0.2327
  -7.600  -0.8030   0.02241   0.01420  -0.0080  1.0000  0.0498  -3.9317   0.0000   0.2331
  -7.500  -0.7940   0.02203   0.01373  -0.0076  1.0000  0.0513  -3.8647   0.0000   0.2335
  -7.400  -0.7850   0.02151   0.01316  -0.0072  1.0000  0.0525  -3.7982   0.0000   0.2340
  -7.300  -0.7761   0.02103   0.01276  -0.0069  1.0000  0.0537  -3.7205   0.0000   0.2343
  -7.200  -0.7671   0.02065   0.01238  -0.0066  1.0000  0.0551  -3.6465   0.0000   0.2348
  -7.100  -0.7580   0.02026   0.01193  -0.0062  1.0000  0.0565  -3.5779   0.0000   0.2353
  -7.000  -0.7487   0.01993   0.01149  -0.0057  1.0000  0.0581  -3.5207   0.0000   0.2359
  -6.900  -0.7404   0.01938   0.01104  -0.0054  1.0000  0.0595  -3.4570   0.0000   0.2364
  -6.800  -0.7316   0.01905   0.01074  -0.0050  1.0000  0.0614  -3.3903   0.0000   0.2369
  -6.700  -0.7226   0.01877   0.01040  -0.0046  1.0000  0.0636  -3.3287   0.0000   0.2374
  -6.600  -0.7141   0.01834   0.01000  -0.0042  1.0000  0.0657  -3.2675   0.0000   0.2380
  -6.500  -0.7056   0.01802   0.00972  -0.0038  1.0000  0.0678  -3.2020   0.0000   0.2386
  -6.400  -0.6966   0.01773   0.00938  -0.0033  1.0000  0.0705  -3.1413   0.0000   0.2393
  -6.300  -0.6885   0.01732   0.00902  -0.0028  1.0000  0.0728  -3.0811   0.0000   0.2400
  -6.200  -0.6799   0.01701   0.00874  -0.0024  1.0000  0.0756  -3.0178   0.0000   0.2407
  -6.100  -0.6713   0.01671   0.00840  -0.0019  1.0000  0.0789  -2.9574   0.0000   0.2414
  -6.000  -0.6630   0.01639   0.00814  -0.0015  1.0000  0.0823  -2.8934   0.0000   0.2422
  -5.900  -0.6545   0.01609   0.00783  -0.0010  1.0000  0.0863  -2.8329   0.0000   0.2430
  -5.800  -0.6462   0.01580   0.00758  -0.0005  1.0000  0.0905  -2.7703   0.0000   0.2437
  -5.700  -0.6380   0.01548   0.00729  -0.0000  1.0000  0.0952  -2.7101   0.0000   0.2446
  -5.600  -0.6294   0.01522   0.00703   0.0005  1.0000  0.1011  -2.6487   0.0000   0.2454
  -5.500  -0.6212   0.01491   0.00678   0.0009  1.0000  0.1074  -2.5873   0.0000   0.2463
  -5.400  -0.6130   0.01460   0.00653   0.0014  1.0000  0.1146  -2.5295   0.0000   0.2472
  -5.300  -0.6048   0.01430   0.00629   0.0019  1.0000  0.1233  -2.4755   0.0000   0.2481
  -5.200  -0.5964   0.01401   0.00606   0.0024  1.0000  0.1339  -2.4213   0.0000   0.2490
  -5.100  -0.5883   0.01370   0.00583   0.0029  1.0000  0.1461  -2.3671   0.0000   0.2499
  -5.000  -0.5801   0.01340   0.00562   0.0033  1.0000  0.1609  -2.3125   0.0000   0.2509
  -4.900  -0.5719   0.01310   0.00542   0.0038  1.0000  0.1780  -2.2578   0.0000   0.2518
  -4.800  -0.5637   0.01281   0.00525   0.0042  1.0000  0.1979  -2.2026   0.0000   0.2528
  -4.700  -0.5555   0.01253   0.00509   0.0047  1.0000  0.2198  -2.1471   0.0000   0.2538
  -4.600  -0.5472   0.01227   0.00494   0.0051  1.0000  0.2429  -2.0913   0.0000   0.2548
  -4.500  -0.5388   0.01203   0.00481   0.0055  1.0000  0.2665  -2.0353   0.0000   0.2558
  -4.400  -0.5304   0.01181   0.00470   0.0060  1.0000  0.2901  -1.9792   0.0000   0.2568
  -4.300  -0.5218   0.01160   0.00459   0.0064  1.0000  0.3136  -1.9231   0.0000   0.2579
  -4.200  -0.5132   0.01141   0.00450   0.0068  1.0000  0.3368  -1.8683   0.0000   0.2590
  -4.100  -0.5046   0.01122   0.00440   0.0072  1.0000  0.3596  -1.8176   0.0000   0.2601
  -4.000  -0.4960   0.01105   0.00432   0.0077  1.0000  0.3816  -1.7672   0.0000   0.2613
  -3.900  -0.4872   0.01089   0.00424   0.0081  1.0000  0.4035  -1.7167   0.0000   0.2625
  -3.800  -0.4785   0.01074   0.00418   0.0085  1.0000  0.4251  -1.6666   0.0000   0.2638
  -3.700  -0.4697   0.01059   0.00411   0.0089  1.0000  0.4460  -1.6167   0.0000   0.2651
  -3.600  -0.4608   0.01045   0.00406   0.0094  1.0000  0.4669  -1.5670   0.0000   0.2664
  -3.500  -0.4519   0.01033   0.00401   0.0098  1.0000  0.4873  -1.5176   0.0000   0.2678
  -3.400  -0.4430   0.01020   0.00397   0.0102  1.0000  0.5074  -1.4685   0.0000   0.2693
  -3.300  -0.4339   0.01009   0.00392   0.0106  1.0000  0.5276  -1.4224   0.0000   0.2708
  -3.200  -0.4250   0.00997   0.00388   0.0111  1.0000  0.5470  -1.3782   0.0000   0.2724
  -3.100  -0.4159   0.00987   0.00385   0.0115  1.0000  0.5665  -1.3343   0.0000   0.2741
  -2.900  -0.3977   0.00968   0.00381   0.0124  1.0000  0.6047  -1.2472   0.0000   0.2777
  -2.800  -0.3886   0.00959   0.00380   0.0128  1.0000  0.6236  -1.2042   0.0000   0.2796
  -2.700  -0.3794   0.00951   0.00379   0.0132  1.0000  0.6425  -1.1627   0.0000   0.2816
  -2.600  -0.3702   0.00944   0.00379   0.0137  1.0000  0.6608  -1.1239   0.0000   0.2838
  -2.500  -0.3611   0.00936   0.00379   0.0142  1.0000  0.6789  -1.0855   0.0000   0.2861
  -2.400  -0.3519   0.00930   0.00380   0.0147  1.0000  0.6971  -1.0473   0.0000   0.2885
  -2.300  -0.3427   0.00926   0.00382   0.0151  1.0000  0.7152  -1.0094   0.0000   0.2910
  -2.200  -0.3335   0.00921   0.00383   0.0156  1.0000  0.7327  -0.9735   0.0000   0.2938
  -2.100  -0.3244   0.00917   0.00386   0.0161  1.0000  0.7498  -0.9393   0.0000   0.2968
  -2.000  -0.3153   0.00915   0.00390   0.0167  1.0000  0.7669  -0.9055   0.0000   0.3000
  -1.900  -0.3062   0.00913   0.00394   0.0172  1.0000  0.7838  -0.8720   0.0000   0.3034
  -1.800  -0.2973   0.00912   0.00398   0.0178  1.0000  0.8005  -0.8410   0.0000   0.3070
  -1.700  -0.2885   0.00913   0.00404   0.0184  1.0000  0.8162  -0.8110   0.0000   0.3111
  -1.600  -0.2798   0.00914   0.00410   0.0191  1.0000  0.8317  -0.7814   0.0000   0.3156
  -1.500  -0.2713   0.00917   0.00417   0.0198  1.0000  0.8471  -0.7535   0.0000   0.3203
  -1.400  -0.2628   0.00921   0.00424   0.0205  1.0000  0.8623  -0.7268   0.0000   0.3254
  -1.300  -0.2542   0.00926   0.00432   0.0212  1.0000  0.8773  -0.7003   0.0000   0.3308
  -1.200  -0.2454   0.00932   0.00440   0.0218  1.0000  0.8916  -0.6752   0.0000   0.3364
  -1.100  -0.2358   0.00939   0.00449   0.0223  1.0000  0.9054  -0.6495   0.0000   0.3421
  -1.000  -0.2248   0.00948   0.00459   0.0224  0.9999  0.9188  -0.6237   0.0000   0.3476
  -0.900  -0.2051   0.00957   0.00468   0.0208  0.9976  0.9297  -0.5888   0.0000   0.3493
  -0.800  -0.1846   0.00965   0.00475   0.0190  0.9951  0.9391  -0.5555   0.0000   0.3510
  -0.700  -0.1633   0.00974   0.00483   0.0171  0.9931  0.9476  -0.5235   0.0000   0.3523
  -0.600  -0.1422   0.00981   0.00489   0.0151  0.9905  0.9552  -0.4940   0.0000   0.3541
  -0.500  -0.1191   0.00988   0.00494   0.0127  0.9886  0.9604  -0.4647   0.0000   0.3548
  -0.400  -0.0960   0.00994   0.00499   0.0103  0.9870  0.9656  -0.4376   0.0000   0.3557
  -0.300  -0.0730   0.00999   0.00503   0.0080  0.9844  0.9696  -0.4125   0.0000   0.3572
  -0.200  -0.0494   0.01002   0.00506   0.0055  0.9823  0.9734  -0.3888   0.0000   0.3589
  -0.100  -0.0241   0.01005   0.00508   0.0026  0.9808  0.9756  -0.3652   0.0000   0.3564
   0.000  -0.0000   0.01005   0.00508  -0.0000  0.9783  0.9783  -0.3441   0.0000   0.2438
   0.100   0.0241   0.01005   0.00508  -0.0026  0.9756  0.9808  -0.3652   0.0000   0.3564
   0.200   0.0494   0.01002   0.00506  -0.0055  0.9734  0.9823  -0.3888   0.0000   0.3589
   0.300   0.0730   0.00999   0.00503  -0.0080  0.9696  0.9844  -0.4125   0.0000   0.3572
   0.400   0.0960   0.00994   0.00499  -0.0103  0.9656  0.9869  -0.4376   0.0000   0.3557
   0.500   0.1191   0.00988   0.00494  -0.0127  0.9604  0.9886  -0.4648   0.0000   0.3548
   0.600   0.1422   0.00981   0.00489  -0.0151  0.9552  0.9905  -0.4940   0.0000   0.3541
   0.700   0.1633   0.00974   0.00483  -0.0171  0.9476  0.9931  -0.5235   0.0000   0.3523
   0.800   0.1847   0.00965   0.00475  -0.0190  0.9391  0.9951  -0.5555   0.0000   0.3510
   0.900   0.2051   0.00957   0.00468  -0.0208  0.9297  0.9976  -0.5888   0.0000   0.3494
   1.000   0.2248   0.00948   0.00459  -0.0224  0.9188  1.0000  -0.6237   0.0000   0.3476
   1.100   0.2357   0.00939   0.00449  -0.0223  0.9054  1.0000  -0.6495   0.0000   0.3421
   1.200   0.2454   0.00932   0.00440  -0.0218  0.8916  1.0000  -0.6752   0.0000   0.3364
   1.300   0.2542   0.00926   0.00432  -0.0212  0.8773  1.0000  -0.7002   0.0000   0.3308
   1.400   0.2627   0.00921   0.00424  -0.0205  0.8623  1.0000  -0.7268   0.0000   0.3254
   1.500   0.2712   0.00917   0.00417  -0.0198  0.8471  1.0000  -0.7535   0.0000   0.3203
   1.600   0.2798   0.00914   0.00410  -0.0191  0.8317  1.0000  -0.7814   0.0000   0.3155
   1.700   0.2885   0.00913   0.00404  -0.0184  0.8162  1.0000  -0.8110   0.0000   0.3111
   1.800   0.2973   0.00912   0.00398  -0.0178  0.8004  1.0000  -0.8410   0.0000   0.3070
   1.900   0.3062   0.00913   0.00394  -0.0172  0.7838  1.0000  -0.8720   0.0000   0.3034
   2.000   0.3152   0.00915   0.00390  -0.0167  0.7669  1.0000  -0.9054   0.0000   0.2999
   2.100   0.3243   0.00917   0.00386  -0.0161  0.7498  1.0000  -0.9393   0.0000   0.2968
   2.200   0.3335   0.00921   0.00383  -0.0156  0.7327  1.0000  -0.9735   0.0000   0.2938
   2.300   0.3427   0.00925   0.00382  -0.0151  0.7152  1.0000  -1.0093   0.0000   0.2910
   2.400   0.3519   0.00930   0.00380  -0.0146  0.6971  1.0000  -1.0472   0.0000   0.2885
   2.500   0.3610   0.00936   0.00379  -0.0142  0.6790  1.0000  -1.0854   0.0000   0.2860
   2.600   0.3702   0.00943   0.00379  -0.0137  0.6609  1.0000  -1.1239   0.0000   0.2837
   2.700   0.3793   0.00951   0.00379  -0.0132  0.6426  1.0000  -1.1627   0.0000   0.2816
   2.800   0.3885   0.00959   0.00380  -0.0128  0.6236  1.0000  -1.2041   0.0000   0.2796
   2.900   0.3977   0.00968   0.00381  -0.0124  0.6047  1.0000  -1.2471   0.0000   0.2776
   3.100   0.4159   0.00987   0.00385  -0.0115  0.5665  1.0000  -1.3342   0.0000   0.2741
   3.200   0.4249   0.00997   0.00388  -0.0111  0.5470  1.0000  -1.3782   0.0000   0.2724
   3.300   0.4339   0.01009   0.00392  -0.0106  0.5276  1.0000  -1.4223   0.0000   0.2708
   3.400   0.4429   0.01020   0.00397  -0.0102  0.5074  1.0000  -1.4684   0.0000   0.2693
   3.500   0.4518   0.01033   0.00401  -0.0098  0.4873  1.0000  -1.5175   0.0000   0.2678
   3.600   0.4608   0.01045   0.00406  -0.0093  0.4669  1.0000  -1.5669   0.0000   0.2664
   3.700   0.4696   0.01059   0.00411  -0.0089  0.4460  1.0000  -1.6166   0.0000   0.2651
   3.800   0.4784   0.01073   0.00418  -0.0085  0.4251  1.0000  -1.6665   0.0000   0.2637
   3.900   0.4872   0.01089   0.00424  -0.0081  0.4036  1.0000  -1.7166   0.0000   0.2625
   4.000   0.4960   0.01105   0.00431  -0.0076  0.3816  1.0000  -1.7671   0.0000   0.2613
   4.100   0.5046   0.01122   0.00439  -0.0072  0.3596  1.0000  -1.8175   0.0000   0.2601
   4.200   0.5132   0.01141   0.00449  -0.0068  0.3368  1.0000  -1.8682   0.0000   0.2590
   4.300   0.5218   0.01160   0.00459  -0.0064  0.3136  1.0000  -1.9230   0.0000   0.2579
   4.400   0.5303   0.01180   0.00470  -0.0060  0.2902  1.0000  -1.9791   0.0000   0.2568
   4.500   0.5388   0.01203   0.00481  -0.0055  0.2665  1.0000  -2.0352   0.0000   0.2558
   4.600   0.5472   0.01227   0.00494  -0.0051  0.2430  1.0000  -2.0912   0.0000   0.2548
   4.700   0.5555   0.01253   0.00509  -0.0047  0.2199  1.0000  -2.1470   0.0000   0.2538
   4.800   0.5637   0.01281   0.00524  -0.0042  0.1979  1.0000  -2.2025   0.0000   0.2528
   4.900   0.5719   0.01309   0.00542  -0.0038  0.1781  1.0000  -2.2577   0.0000   0.2518
   5.000   0.5801   0.01340   0.00562  -0.0033  0.1609  1.0000  -2.3124   0.0000   0.2509
   5.100   0.5883   0.01370   0.00582  -0.0029  0.1461  1.0000  -2.3670   0.0000   0.2499
   5.200   0.5964   0.01401   0.00606  -0.0024  0.1339  1.0000  -2.4212   0.0000   0.2490
   5.300   0.6047   0.01430   0.00629  -0.0019  0.1233  1.0000  -2.4754   0.0000   0.2481
   5.400   0.6130   0.01460   0.00653  -0.0014  0.1146  1.0000  -2.5294   0.0000   0.2472
   5.500   0.6212   0.01491   0.00678  -0.0009  0.1074  1.0000  -2.5872   0.0000   0.2463
   5.600   0.6293   0.01522   0.00703  -0.0005  0.1011  1.0000  -2.6486   0.0000   0.2454
   5.700   0.6379   0.01548   0.00729   0.0000  0.0952  1.0000  -2.7100   0.0000   0.2446
   5.800   0.6462   0.01579   0.00758   0.0005  0.0905  1.0000  -2.7702   0.0000   0.2437
   5.900   0.6545   0.01609   0.00783   0.0010  0.0863  1.0000  -2.8328   0.0000   0.2429
   6.000   0.6630   0.01639   0.00814   0.0015  0.0823  1.0000  -2.8934   0.0000   0.2422
   6.100   0.6713   0.01670   0.00839   0.0019  0.0789  1.0000  -2.9573   0.0000   0.2414
   6.200   0.6799   0.01701   0.00873   0.0024  0.0756  1.0000  -3.0177   0.0000   0.2407
   6.300   0.6884   0.01732   0.00901   0.0028  0.0728  1.0000  -3.0810   0.0000   0.2400
   6.400   0.6966   0.01773   0.00938   0.0033  0.0705  1.0000  -3.1413   0.0000   0.2393
   6.500   0.7056   0.01802   0.00972   0.0038  0.0678  1.0000  -3.2019   0.0000   0.2386
   6.600   0.7141   0.01834   0.01000   0.0042  0.0656  1.0000  -3.2674   0.0000   0.2380
   6.700   0.7225   0.01877   0.01040   0.0046  0.0636  1.0000  -3.3287   0.0000   0.2374
   6.800   0.7316   0.01905   0.01074   0.0050  0.0614  1.0000  -3.3903   0.0000   0.2369
   6.900   0.7404   0.01937   0.01104   0.0054  0.0595  1.0000  -3.4570   0.0000   0.2364
   7.000   0.7488   0.01993   0.01149   0.0057  0.0581  1.0000  -3.5207   0.0000   0.2359
   7.100   0.7580   0.02026   0.01193   0.0062  0.0565  1.0000  -3.5779   0.0000   0.2353
   7.200   0.7671   0.02065   0.01238   0.0066  0.0551  1.0000  -3.6466   0.0000   0.2348
   7.300   0.7761   0.02103   0.01276   0.0069  0.0537  1.0000  -3.7206   0.0000   0.2343
   7.400   0.7850   0.02151   0.01316   0.0072  0.0525  1.0000  -3.7983   0.0000   0.2340
   7.500   0.7940   0.02203   0.01372   0.0076  0.0513  1.0000  -3.8647   0.0000   0.2336
   7.600   0.8030   0.02241   0.01420   0.0080  0.0498  1.0000  -3.9318   0.0000   0.2331
   7.700   0.8120   0.02278   0.01461   0.0083  0.0485  1.0000  -4.0062   0.0000   0.2327
   7.800   0.8210   0.02317   0.01499   0.0086  0.0474  1.0000  -4.0855   0.0000   0.2323
   7.900   0.8301   0.02378   0.01553   0.0088  0.0465  1.0000  -4.1639   0.0000   0.2321
   8.000   0.8390   0.02443   0.01626   0.0092  0.0458  1.0000  -4.2230   0.0000   0.2317
   8.100   0.8476   0.02499   0.01697   0.0097  0.0450  1.0000  -4.2778   0.0000   0.2311
   8.200   0.8563   0.02560   0.01770   0.0101  0.0442  1.0000  -4.3349   0.0000   0.2306
   8.300   0.8650   0.02621   0.01839   0.0105  0.0435  1.0000  -4.3953   0.0000   0.2302
   8.400   0.8737   0.02677   0.01901   0.0109  0.0427  1.0000  -4.4622   0.0000   0.2298
   8.500   0.8826   0.02729   0.01953   0.0111  0.0420  1.0000  -4.5376   0.0000   0.2296
   8.600   0.8914   0.02788   0.02010   0.0113  0.0413  1.0000  -4.6172   0.0000   0.2294
   8.700   0.8996   0.02885   0.02107   0.0116  0.0407  1.0000  -4.6803   0.0000   0.2291
   8.800   0.9060   0.02950   0.02198   0.0124  0.0400  1.0000  -4.7147   0.0000   0.2283
   8.900   0.9126   0.03026   0.02294   0.0130  0.0392  1.0000  -4.7536   0.0000   0.2276
   9.000   0.9194   0.03103   0.02386   0.0136  0.0386  1.0000  -4.7986   0.0000   0.2270
   9.100   0.9263   0.03185   0.02481   0.0141  0.0381  1.0000  -4.8441   0.0000   0.2264
   9.200   0.9329   0.03271   0.02577   0.0146  0.0376  1.0000  -4.8893   0.0000   0.2259
   9.300   0.9396   0.03354   0.02671   0.0151  0.0373  1.0000  -4.9382   0.0000   0.2254
   9.400   0.9465   0.03434   0.02758   0.0155  0.0369  1.0000  -4.9983   0.0000   0.2249
   9.500   0.9538   0.03511   0.02837   0.0159  0.0366  1.0000  -5.0727   0.0000   0.2246
   9.600   0.9611   0.03596   0.02925   0.0162  0.0362  1.0000  -5.1464   0.0000   0.2243
   9.700   0.9672   0.03708   0.03041   0.0165  0.0360  1.0000  -5.2056   0.0000   0.2239
   9.800   0.9721   0.03849   0.03191   0.0170  0.0358  1.0000  -5.2486   0.0000   0.2235
   9.900   0.9752   0.03999   0.03356   0.0177  0.0356  1.0000  -5.2692   0.0000   0.2228
  10.000   0.9770   0.04138   0.03515   0.0185  0.0356  1.0000  -5.2786   0.0000   0.2218
  10.100   0.9782   0.04285   0.03681   0.0193  0.0356  1.0000  -5.2848   0.0000   0.2209
  10.200   0.9787   0.04436   0.03852   0.0202  0.0355  1.0000  -5.2858   0.0000   0.2200
  10.300   0.9782   0.04592   0.04026   0.0210  0.0355  1.0000  -5.2813   0.0000   0.2190
  10.400   0.9767   0.04752   0.04204   0.0219  0.0355  1.0000  -5.2716   0.0000   0.2181
  10.500   0.9743   0.04915   0.04384   0.0227  0.0354  1.0000  -5.2573   0.0000   0.2170
  10.600   0.9710   0.05080   0.04565   0.0235  0.0354  1.0000  -5.2392   0.0000   0.2160
  10.700   0.9669   0.05247   0.04747   0.0243  0.0354  1.0000  -5.2183   0.0000   0.2150
  10.800   0.9621   0.05414   0.04928   0.0251  0.0354  1.0000  -5.1955   0.0000   0.2140
  10.900   0.9567   0.05580   0.05106   0.0257  0.0354  1.0000  -5.1716   0.0000   0.2131
  11.000   0.9507   0.05741   0.05278   0.0264  0.0354  1.0000  -5.1476   0.0000   0.2121
  11.100   0.9438   0.05890   0.05435   0.0272  0.0354  1.0000  -5.1247   0.0000   0.2109
  11.200   0.9369   0.06042   0.05595   0.0279  0.0355  1.0000  -5.1023   0.0000   0.2099
  11.300   0.9300   0.06202   0.05761   0.0282  0.0355  1.0000  -5.0800   0.0000   0.2091
  11.400   0.9234   0.06369   0.05934   0.0283  0.0356  1.0000  -5.0583   0.0000   0.2087
  11.500   0.9172   0.06545   0.06115   0.0281  0.0356  1.0000  -5.0374   0.0000   0.2086
  11.600   0.9116   0.06728   0.06304   0.0277  0.0356  1.0000  -5.0185   0.0000   0.2086
  12.800   0.5203   0.13218   0.12861  -0.0060  0.0673  1.0000  -1.6125   0.0000   0.2534
  12.900   0.5210   0.13328   0.12971  -0.0062  0.0666  1.0000  -1.6193   0.0000   0.2537
  13.000   0.5233   0.13425   0.13068  -0.0062  0.0659  1.0000  -1.6393   0.0000   0.2535
  13.100   0.5275   0.13508   0.13152  -0.0059  0.0654  1.0000  -1.6768   0.0000   0.2527
  13.200   0.5349   0.13583   0.13228  -0.0051  0.0649  1.0000  -1.7411   0.0000   0.2510
  13.300   0.5470   0.13658   0.13305  -0.0036  0.0646  1.0000  -1.8465   0.0000   0.2478
  13.400   0.5399   0.13830   0.13476  -0.0047  0.0643  1.0000  -1.7819   0.0000   0.2500
  13.500   0.5226   0.13969   0.13612  -0.0069  0.0640  1.0000  -1.6388   0.0000   0.2546
  13.600   0.5100   0.14077   0.13720  -0.0085  0.0631  1.0000  -1.5363   0.0000   0.2582
  13.700   0.5065   0.14184   0.13827  -0.0092  0.0621  1.0000  -1.5040   0.0000   0.2598
  13.800   0.5057   0.14286   0.13929  -0.0096  0.0612  1.0000  -1.4934   0.0000   0.2606
  13.900   0.5061   0.14382   0.14025  -0.0099  0.0605  1.0000  -1.4937   0.0000   0.2611
  14.000   0.5078   0.14472   0.14116  -0.0100  0.0598  1.0000  -1.5061   0.0000   0.2612
  15.700   0.7334   0.19227   0.18840  -0.0464  0.0436  1.0000  -1.8623   0.0000   0.2998
  15.800   0.7361   0.19370   0.18984  -0.0471  0.0430  1.0000  -1.8689   0.0000   0.3004
  15.900   0.7391   0.19505   0.19119  -0.0477  0.0425  1.0000  -1.8824   0.0000   0.3008
  16.000   0.7425   0.19631   0.19245  -0.0481  0.0420  1.0000  -1.9049   0.0000   0.3010
  16.100   0.7464   0.19750   0.19364  -0.0483  0.0416  1.0000  -1.9403   0.0000   0.3007
  16.200   0.7516   0.19863   0.19478  -0.0480  0.0412  1.0000  -1.9982   0.0000   0.2998
  16.300   0.7617   0.20005   0.19622  -0.0463  0.0409  1.0000  -2.1263   0.0000   0.2965
  16.400   0.7630   0.20196   0.19811  -0.0473  0.0407  1.0000  -2.1046   0.0000   0.2976
  16.500   0.7573   0.20374   0.19987  -0.0509  0.0404  1.0000  -1.9617   0.0000   0.3027
  16.600   0.7568   0.20565   0.20177  -0.0531  0.0395  1.0000  -1.8827   0.0000   0.3057
  16.700   0.7591   0.20717   0.20329  -0.0541  0.0387  1.0000  -1.8723   0.0000   0.3067
  16.800   0.7620   0.20859   0.20470  -0.0549  0.0380  1.0000  -1.8753   0.0000   0.3073
  16.900   0.7650   0.20994   0.20606  -0.0556  0.0375  1.0000  -1.8840   0.0000   0.3078
  17.000   0.7682   0.21124   0.20736  -0.0562  0.0371  1.0000  -1.8978   0.0000   0.3081
  17.100   0.7717   0.21249   0.20862  -0.0567  0.0367  1.0000  -1.9178   0.0000   0.3083
  17.200   0.7754   0.21371   0.20985  -0.0571  0.0364  1.0000  -1.9456   0.0000   0.3083
  17.300   0.7796   0.21496   0.21110  -0.0572  0.0361  1.0000  -1.9841   0.0000   0.3079
  17.400   0.7847   0.21631   0.21245  -0.0570  0.0359  1.0000  -2.0400   0.0000   0.3070
  17.500   0.7925   0.21815   0.21431  -0.0559  0.0357  1.0000  -2.1331   0.0000   0.3047
  17.600   0.7939   0.21987   0.21602  -0.0571  0.0356  1.0000  -2.1050   0.0000   0.3060
  17.700   0.7917   0.22127   0.21740  -0.0598  0.0355  1.0000  -2.0002   0.0000   0.3096
  17.800   0.7916   0.22300   0.21912  -0.0622  0.0351  1.0000  -1.9085   0.0000   0.3126
  17.900   0.7937   0.22462   0.22074  -0.0636  0.0345  1.0000  -1.8727   0.0000   0.3140
  18.000   0.7966   0.22610   0.22222  -0.0646  0.0339  1.0000  -1.8619   0.0000   0.3149
  18.100   0.7996   0.22753   0.22365  -0.0655  0.0334  1.0000  -1.8593   0.0000   0.3155
  18.200   0.8027   0.22891   0.22503  -0.0663  0.0330  1.0000  -1.8615   0.0000   0.3160
  18.300   0.8060   0.23024   0.22636  -0.0670  0.0326  1.0000  -1.8676   0.0000   0.3165
  18.400   0.8093   0.23153   0.22765  -0.0677  0.0322  1.0000  -1.8777   0.0000   0.3168
  18.500   0.8127   0.23279   0.22891  -0.0684  0.0319  1.0000  -1.8922   0.0000   0.3171
  18.600   0.8163   0.23402   0.23015  -0.0689  0.0316  1.0000  -1.9121   0.0000   0.3172
  18.700   0.8200   0.23528   0.23141  -0.0693  0.0314  1.0000  -1.9389   0.0000   0.3172
  18.800   0.8240   0.23657   0.23271  -0.0695  0.0312  1.0000  -1.9753   0.0000   0.3169
  18.900   0.8288   0.23807   0.23421  -0.0694  0.0310  1.0000  -2.0269   0.0000   0.3160
  19.000   0.8354   0.24019   0.23636  -0.0686  0.0309  1.0000  -2.1070   0.0000   0.3142
  19.100   0.8365   0.24158   0.23773  -0.0702  0.0308  1.0000  -2.0578   0.0000   0.3159
  19.200   0.8367   0.24276   0.23890  -0.0725  0.0307  1.0000  -1.9743   0.0000   0.3186
  19.300   0.8379   0.24420   0.24033  -0.0746  0.0305  1.0000  -1.8983   0.0000   0.3208
  19.400   0.8404   0.24577   0.24189  -0.0762  0.0301  1.0000  -1.8507   0.0000   0.3223
  19.500   0.8435   0.24725   0.24338  -0.0773  0.0296  1.0000  -1.8302   0.0000   0.3232
  19.600   0.8466   0.24863   0.24476  -0.0782  0.0291  1.0000  -1.8217   0.0000   0.3238
  19.700   0.8499   0.24998   0.24611  -0.0791  0.0286  1.0000  -1.8196   0.0000   0.3243
  19.800   0.8532   0.25127   0.24740  -0.0799  0.0282  1.0000  -1.8269   0.0000   0.3248
  19.900   0.8566   0.25250   0.24864  -0.0807  0.0278  1.0000  -1.8423   0.0000   0.3251
  20.000   0.8600   0.25372   0.24986  -0.0814  0.0274  1.0000  -1.8633   0.0000   0.3254


