xflr5 v6.47

 Calculated polar for: NACA 0010

 1 1 Reynolds number fixed          Mach number fixed         

 xtrf =   1.000 (top)        1.000 (bottom)
 Mach =   0.000     Re =     0.800 e 6     Ncrit =   9.000

  alpha     CL        CD       CDp       Cm    Top Xtr Bot Xtr   Cpmin    Chinge    XCp    
 ------- -------- --------- --------- -------- ------- ------- -------- --------- ---------
 -10.000  -1.0561   0.01806   0.01238  -0.0084  1.0000  0.0161  -6.8382   0.0000   0.2322
  -9.900  -1.0473   0.01782   0.01212  -0.0081  1.0000  0.0163  -6.7219   0.0000   0.2326
  -9.800  -1.0383   0.01758   0.01187  -0.0078  1.0000  0.0165  -6.6136   0.0000   0.2329
  -9.700  -1.0294   0.01735   0.01162  -0.0076  1.0000  0.0168  -6.5093   0.0000   0.2332
  -9.600  -1.0204   0.01712   0.01137  -0.0073  1.0000  0.0171  -6.4062   0.0000   0.2336
  -9.500  -1.0113   0.01690   0.01111  -0.0070  1.0000  0.0173  -6.3042   0.0000   0.2339
  -9.400  -1.0022   0.01668   0.01087  -0.0067  1.0000  0.0176  -6.2024   0.0000   0.2343
  -9.300  -0.9929   0.01648   0.01064  -0.0064  1.0000  0.0179  -6.0995   0.0000   0.2346
  -9.200  -0.9833   0.01631   0.01044  -0.0062  1.0000  0.0182  -5.9954   0.0000   0.2349
  -9.100  -0.9736   0.01617   0.01027  -0.0060  1.0000  0.0184  -5.8896   0.0000   0.2352
  -9.000  -0.9660   0.01574   0.00981  -0.0055  1.0000  0.0188  -5.8067   0.0000   0.2357
  -8.900  -0.9581   0.01538   0.00944  -0.0051  1.0000  0.0193  -5.7165   0.0000   0.2363
  -8.800  -0.9490   0.01515   0.00920  -0.0048  1.0000  0.0196  -5.6159   0.0000   0.2366
  -8.700  -0.9397   0.01496   0.00900  -0.0045  1.0000  0.0200  -5.5136   0.0000   0.2370
  -8.600  -0.9303   0.01478   0.00881  -0.0042  1.0000  0.0204  -5.4127   0.0000   0.2373
  -8.500  -0.9210   0.01460   0.00861  -0.0039  1.0000  0.0208  -5.3135   0.0000   0.2377
  -8.400  -0.9116   0.01442   0.00842  -0.0037  1.0000  0.0212  -5.2153   0.0000   0.2381
  -8.300  -0.9021   0.01425   0.00822  -0.0034  1.0000  0.0216  -5.1178   0.0000   0.2385
  -8.200  -0.8925   0.01410   0.00805  -0.0031  1.0000  0.0220  -5.0200   0.0000   0.2388
  -8.100  -0.8828   0.01397   0.00790  -0.0028  1.0000  0.0223  -4.9214   0.0000   0.2392
  -8.000  -0.8752   0.01357   0.00749  -0.0023  1.0000  0.0230  -4.8416   0.0000   0.2399
  -7.900  -0.8662   0.01335   0.00727  -0.0019  1.0000  0.0235  -4.7485   0.0000   0.2404
  -7.800  -0.8569   0.01319   0.00709  -0.0016  1.0000  0.0241  -4.6526   0.0000   0.2408
  -7.700  -0.8476   0.01304   0.00693  -0.0013  1.0000  0.0246  -4.5572   0.0000   0.2413
  -7.600  -0.8382   0.01289   0.00677  -0.0010  1.0000  0.0252  -4.4630   0.0000   0.2417
  -7.500  -0.8287   0.01276   0.00663  -0.0007  1.0000  0.0258  -4.3691   0.0000   0.2422
  -7.400  -0.8190   0.01266   0.00651  -0.0004  1.0000  0.0263  -4.2746   0.0000   0.2426
  -7.300  -0.8107   0.01239   0.00623   0.0001  1.0000  0.0273  -4.1911   0.0000   0.2433
  -7.200  -0.8017   0.01221   0.00606   0.0005  1.0000  0.0281  -4.1006   0.0000   0.2439
  -7.100  -0.7924   0.01208   0.00593   0.0008  1.0000  0.0289  -4.0088   0.0000   0.2444
  -7.000  -0.7830   0.01196   0.00580   0.0011  1.0000  0.0298  -3.9190   0.0000   0.2450
  -6.900  -0.7735   0.01185   0.00568   0.0014  1.0000  0.0306  -3.8379   0.0000   0.2455
  -6.800  -0.7646   0.01167   0.00548   0.0019  1.0000  0.0315  -3.7620   0.0000   0.2461
  -6.700  -0.7556   0.01149   0.00531   0.0023  1.0000  0.0326  -3.6844   0.0000   0.2468
  -6.600  -0.7464   0.01136   0.00518   0.0026  1.0000  0.0337  -3.6050   0.0000   0.2474
  -6.500  -0.7370   0.01125   0.00506   0.0030  1.0000  0.0348  -3.5261   0.0000   0.2480
  -6.400  -0.7277   0.01114   0.00494   0.0033  1.0000  0.0358  -3.4483   0.0000   0.2486
  -6.300  -0.7189   0.01095   0.00477   0.0038  1.0000  0.0374  -3.3738   0.0000   0.2494
  -6.200  -0.7097   0.01083   0.00465   0.0041  1.0000  0.0389  -3.2964   0.0000   0.2501
  -6.100  -0.7003   0.01074   0.00455   0.0045  1.0000  0.0404  -3.2192   0.0000   0.2507
  -6.000  -0.6913   0.01058   0.00441   0.0049  1.0000  0.0423  -3.1451   0.0000   0.2515
  -5.900  -0.6822   0.01046   0.00430   0.0053  1.0000  0.0443  -3.0698   0.0000   0.2522
  -5.800  -0.6728   0.01038   0.00420   0.0056  1.0000  0.0462  -2.9945   0.0000   0.2530
  -5.700  -0.6639   0.01022   0.00407   0.0061  1.0000  0.0487  -2.9219   0.0000   0.2538
  -5.600  -0.6547   0.01012   0.00397   0.0064  1.0000  0.0512  -2.8483   0.0000   0.2546
  -5.500  -0.6457   0.00999   0.00386   0.0068  1.0000  0.0540  -2.7761   0.0000   0.2554
  -5.400  -0.6365   0.00988   0.00376   0.0072  1.0000  0.0571  -2.7038   0.0000   0.2562
  -5.300  -0.6274   0.00976   0.00366   0.0076  1.0000  0.0606  -2.6324   0.0000   0.2571
  -5.200  -0.6182   0.00966   0.00358   0.0079  1.0000  0.0644  -2.5637   0.0000   0.2579
  -5.100  -0.6091   0.00953   0.00348   0.0083  1.0000  0.0691  -2.5000   0.0000   0.2588
  -5.000  -0.6000   0.00942   0.00339   0.0087  1.0000  0.0741  -2.4365   0.0000   0.2597
  -4.900  -0.5908   0.00931   0.00330   0.0091  1.0000  0.0797  -2.3734   0.0000   0.2606
  -4.700  -0.5724   0.00909   0.00315   0.0097  1.0000  0.0927  -2.2483   0.0000   0.2624
  -4.600  -0.5631   0.00897   0.00307   0.0100  1.0000  0.1003  -2.1860   0.0000   0.2633
  -4.500  -0.5488   0.00883   0.00298   0.0093  0.9992  0.1106  -2.1095   0.0000   0.2625
  -4.400  -0.5346   0.00868   0.00289   0.0085  0.9985  0.1224  -2.0338   0.0000   0.2615
  -4.200  -0.5061   0.00839   0.00273   0.0070  0.9969  0.1488  -1.8850   0.0000   0.2595
  -4.100  -0.4920   0.00825   0.00264   0.0063  0.9959  0.1632  -1.8160   0.0000   0.2585
  -4.000  -0.4779   0.00809   0.00257   0.0055  0.9949  0.1791  -1.7505   0.0000   0.2574
  -3.900  -0.4636   0.00794   0.00249   0.0048  0.9941  0.1957  -1.6852   0.0000   0.2561
  -3.800  -0.4491   0.00780   0.00242   0.0040  0.9933  0.2132  -1.6202   0.0000   0.2547
  -3.700  -0.4351   0.00765   0.00236   0.0033  0.9922  0.2306  -1.5570   0.0000   0.2534
  -3.600  -0.4213   0.00751   0.00229   0.0026  0.9908  0.2487  -1.4950   0.0000   0.2522
  -3.500  -0.4072   0.00737   0.00223   0.0019  0.9896  0.2670  -1.4331   0.0000   0.2507
  -3.400  -0.3928   0.00723   0.00216   0.0011  0.9886  0.2858  -1.3756   0.0000   0.2489
  -3.300  -0.3782   0.00710   0.00210   0.0003  0.9877  0.3049  -1.3193   0.0000   0.2469
  -3.200  -0.3636   0.00697   0.00205  -0.0005  0.9869  0.3236  -1.2635   0.0000   0.2447
  -3.100  -0.3503   0.00684   0.00199  -0.0010  0.9849  0.3420  -1.2111   0.0000   0.2432
  -3.000  -0.3361   0.00672   0.00194  -0.0017  0.9835  0.3604  -1.1575   0.0000   0.2410
  -2.900  -0.3217   0.00659   0.00189  -0.0025  0.9822  0.3789  -1.1081   0.0000   0.2385
  -2.800  -0.3074   0.00648   0.00184  -0.0032  0.9810  0.3973  -1.0599   0.0000   0.2358
  -2.700  -0.2941   0.00637   0.00180  -0.0037  0.9790  0.4149  -1.0140   0.0000   0.2337
  -2.600  -0.2815   0.00626   0.00175  -0.0040  0.9762  0.4318  -0.9699   0.0000   0.2320
  -2.500  -0.2682   0.00615   0.00171  -0.0045  0.9740  0.4491  -0.9288   0.0000   0.2296
  -2.400  -0.2553   0.00605   0.00167  -0.0049  0.9717  0.4663  -0.8885   0.0000   0.2272
  -2.300  -0.2437   0.00596   0.00163  -0.0049  0.9678  0.4823  -0.8509   0.0000   0.2261
  -2.200  -0.2311   0.00587   0.00159  -0.0052  0.9650  0.4987  -0.8145   0.0000   0.2239
  -2.100  -0.2199   0.00578   0.00156  -0.0052  0.9608  0.5144  -0.7809   0.0000   0.2228
  -2.000  -0.2084   0.00569   0.00153  -0.0052  0.9568  0.5299  -0.7475   0.0000   0.2214
  -1.900  -0.1972   0.00561   0.00150  -0.0051  0.9524  0.5453  -0.7172   0.0000   0.2204
  -1.800  -0.1863   0.00553   0.00146  -0.0050  0.9475  0.5604  -0.6874   0.0000   0.2195
  -1.700  -0.1755   0.00546   0.00143  -0.0048  0.9424  0.5754  -0.6596   0.0000   0.2188
  -1.600  -0.1649   0.00538   0.00141  -0.0046  0.9369  0.5902  -0.6327   0.0000   0.2183
  -1.500  -0.1545   0.00532   0.00138  -0.0044  0.9310  0.6047  -0.6075   0.0000   0.2180
  -1.400  -0.1440   0.00525   0.00135  -0.0041  0.9251  0.6192  -0.5830   0.0000   0.2178
  -1.300  -0.1338   0.00519   0.00133  -0.0039  0.9182  0.6334  -0.5603   0.0000   0.2177
  -1.200  -0.1234   0.00514   0.00131  -0.0036  0.9116  0.6474  -0.5383   0.0000   0.2176
  -1.100  -0.1132   0.00509   0.00129  -0.0033  0.9041  0.6614  -0.5174   0.0000   0.2176
  -1.000  -0.1029   0.00504   0.00127  -0.0030  0.8965  0.6751  -0.4977   0.0000   0.2175
  -0.900  -0.0926   0.00500   0.00125  -0.0027  0.8887  0.6887  -0.4788   0.0000   0.2176
  -0.700  -0.0720   0.00492   0.00122  -0.0021  0.8714  0.7154  -0.4438   0.0000   0.2175
  -0.600  -0.0618   0.00489   0.00121  -0.0018  0.8625  0.7283  -0.4276   0.0000   0.2177
  -0.500  -0.0516   0.00487   0.00120  -0.0015  0.8532  0.7410  -0.4123   0.0000   0.2182
  -0.400  -0.0412   0.00484   0.00119  -0.0012  0.8431  0.7534  -0.3977   0.0000   0.2180
  -0.300  -0.0309   0.00483   0.00118  -0.0009  0.8330  0.7655  -0.3837   0.0000   0.2178
  -0.200  -0.0206   0.00482   0.00118  -0.0006  0.8226  0.7775  -0.3703   0.0000   0.2178
  -0.100  -0.0103   0.00481   0.00117  -0.0003  0.8120  0.7892  -0.3575   0.0000   0.2180
   0.000   0.0000   0.00481   0.00117  -0.0000  0.8008  0.8008  -0.3453   0.0000   0.4969
   0.100   0.0103   0.00481   0.00117   0.0003  0.7892  0.8120  -0.3575   0.0000   0.2180
   0.200   0.0206   0.00482   0.00118   0.0006  0.7775  0.8226  -0.3703   0.0000   0.2178
   0.300   0.0309   0.00483   0.00118   0.0009  0.7655  0.8330  -0.3837   0.0000   0.2178
   0.400   0.0412   0.00484   0.00119   0.0012  0.7534  0.8431  -0.3977   0.0000   0.2180
   0.500   0.0516   0.00487   0.00120   0.0015  0.7410  0.8532  -0.4123   0.0000   0.2182
   0.600   0.0618   0.00489   0.00121   0.0018  0.7283  0.8625  -0.4276   0.0000   0.2177
   0.700   0.0720   0.00492   0.00122   0.0021  0.7154  0.8714  -0.4438   0.0000   0.2175
   0.800   0.0823   0.00496   0.00123   0.0024  0.7022  0.8802  -0.4609   0.0000   0.2176
   0.900   0.0926   0.00500   0.00125   0.0027  0.6887  0.8887  -0.4788   0.0000   0.2176
   1.000   0.1029   0.00504   0.00127   0.0030  0.6751  0.8965  -0.4977   0.0000   0.2175
   1.100   0.1132   0.00509   0.00129   0.0033  0.6614  0.9041  -0.5174   0.0000   0.2176
   1.200   0.1234   0.00514   0.00131   0.0036  0.6474  0.9116  -0.5383   0.0000   0.2176
   1.300   0.1338   0.00519   0.00133   0.0039  0.6334  0.9182  -0.5603   0.0000   0.2177
   1.400   0.1440   0.00525   0.00135   0.0041  0.6192  0.9251  -0.5830   0.0000   0.2178
   1.500   0.1545   0.00532   0.00138   0.0044  0.6047  0.9310  -0.6075   0.0000   0.2180
   1.600   0.1649   0.00538   0.00141   0.0046  0.5902  0.9369  -0.6327   0.0000   0.2183
   1.700   0.1755   0.00546   0.00143   0.0048  0.5754  0.9424  -0.6596   0.0000   0.2188
   1.800   0.1863   0.00553   0.00146   0.0050  0.5604  0.9475  -0.6874   0.0000   0.2195
   1.900   0.1972   0.00561   0.00150   0.0051  0.5453  0.9524  -0.7172   0.0000   0.2204
   2.000   0.2084   0.00569   0.00153   0.0052  0.5299  0.9568  -0.7475   0.0000   0.2214
   2.100   0.2199   0.00578   0.00156   0.0052  0.5143  0.9608  -0.7809   0.0000   0.2228
   2.200   0.2311   0.00587   0.00159   0.0052  0.4987  0.9650  -0.8145   0.0000   0.2239
   2.300   0.2437   0.00596   0.00163   0.0049  0.4823  0.9678  -0.8509   0.0000   0.2261
   2.400   0.2552   0.00605   0.00167   0.0049  0.4663  0.9717  -0.8885   0.0000   0.2272
   2.500   0.2682   0.00615   0.00171   0.0045  0.4491  0.9740  -0.9288   0.0000   0.2296
   2.600   0.2815   0.00626   0.00175   0.0040  0.4318  0.9762  -0.9699   0.0000   0.2320
   2.700   0.2941   0.00637   0.00180   0.0037  0.4149  0.9790  -1.0140   0.0000   0.2337
   2.800   0.3074   0.00648   0.00184   0.0032  0.3973  0.9810  -1.0599   0.0000   0.2358
   2.900   0.3217   0.00659   0.00189   0.0025  0.3789  0.9822  -1.1081   0.0000   0.2385
   3.000   0.3361   0.00672   0.00194   0.0017  0.3604  0.9835  -1.1575   0.0000   0.2410
   3.100   0.3503   0.00684   0.00199   0.0010  0.3420  0.9849  -1.2111   0.0000   0.2432
   3.200   0.3636   0.00697   0.00205   0.0005  0.3236  0.9869  -1.2635   0.0000   0.2447
   3.300   0.3782   0.00710   0.00210  -0.0003  0.3049  0.9877  -1.3193   0.0000   0.2469
   3.400   0.3928   0.00723   0.00216  -0.0011  0.2858  0.9886  -1.3756   0.0000   0.2489
   3.500   0.4072   0.00737   0.00223  -0.0019  0.2670  0.9897  -1.4331   0.0000   0.2507
   3.600   0.4213   0.00751   0.00229  -0.0026  0.2487  0.9908  -1.4950   0.0000   0.2522
   3.700   0.4351   0.00765   0.00236  -0.0033  0.2306  0.9922  -1.5570   0.0000   0.2534
   3.800   0.4491   0.00780   0.00242  -0.0040  0.2132  0.9933  -1.6202   0.0000   0.2547
   3.900   0.4636   0.00794   0.00249  -0.0048  0.1957  0.9941  -1.6852   0.0000   0.2561
   4.000   0.4779   0.00809   0.00257  -0.0055  0.1791  0.9950  -1.7505   0.0000   0.2574
   4.100   0.4920   0.00825   0.00264  -0.0063  0.1632  0.9959  -1.8161   0.0000   0.2585
   4.200   0.5061   0.00839   0.00273  -0.0070  0.1488  0.9969  -1.8851   0.0000   0.2596
   4.400   0.5346   0.00868   0.00289  -0.0085  0.1225  0.9985  -2.0339   0.0000   0.2615
   4.500   0.5488   0.00883   0.00298  -0.0093  0.1106  0.9992  -2.1095   0.0000   0.2625
   4.600   0.5631   0.00897   0.00307  -0.0101  0.1002  1.0000  -2.1861   0.0000   0.2633
   4.700   0.5724   0.00909   0.00315  -0.0097  0.0927  1.0000  -2.2481   0.0000   0.2624
   4.900   0.5908   0.00931   0.00330  -0.0090  0.0797  1.0000  -2.3732   0.0000   0.2606
   5.000   0.5999   0.00942   0.00339  -0.0087  0.0741  1.0000  -2.4364   0.0000   0.2597
   5.100   0.6091   0.00953   0.00348  -0.0083  0.0691  1.0000  -2.4999   0.0000   0.2588
   5.200   0.6181   0.00966   0.00358  -0.0079  0.0644  1.0000  -2.5636   0.0000   0.2579
   5.300   0.6273   0.00976   0.00366  -0.0076  0.0606  1.0000  -2.6322   0.0000   0.2570
   5.400   0.6364   0.00988   0.00376  -0.0072  0.0571  1.0000  -2.7036   0.0000   0.2562
   5.500   0.6456   0.00999   0.00386  -0.0068  0.0540  1.0000  -2.7759   0.0000   0.2554
   5.600   0.6547   0.01012   0.00397  -0.0064  0.0512  1.0000  -2.8481   0.0000   0.2545
   5.700   0.6639   0.01022   0.00407  -0.0060  0.0487  1.0000  -2.9217   0.0000   0.2538
   5.800   0.6728   0.01038   0.00420  -0.0056  0.0462  1.0000  -2.9943   0.0000   0.2529
   5.900   0.6822   0.01046   0.00430  -0.0053  0.0443  1.0000  -3.0696   0.0000   0.2522
   6.000   0.6913   0.01058   0.00441  -0.0049  0.0423  1.0000  -3.1450   0.0000   0.2515
   6.100   0.7002   0.01074   0.00455  -0.0045  0.0404  1.0000  -3.2191   0.0000   0.2507
   6.200   0.7096   0.01083   0.00465  -0.0041  0.0389  1.0000  -3.2962   0.0000   0.2501
   6.300   0.7188   0.01095   0.00477  -0.0038  0.0374  1.0000  -3.3736   0.0000   0.2494
   6.400   0.7276   0.01114   0.00494  -0.0033  0.0359  1.0000  -3.4481   0.0000   0.2486
   6.500   0.7370   0.01125   0.00506  -0.0030  0.0348  1.0000  -3.5259   0.0000   0.2480
   6.600   0.7464   0.01136   0.00518  -0.0026  0.0337  1.0000  -3.6048   0.0000   0.2474
   6.700   0.7556   0.01149   0.00531  -0.0023  0.0326  1.0000  -3.6842   0.0000   0.2468
   6.800   0.7645   0.01167   0.00548  -0.0019  0.0315  1.0000  -3.7618   0.0000   0.2461
   7.000   0.7829   0.01196   0.00580  -0.0011  0.0298  1.0000  -3.9189   0.0000   0.2449
   7.100   0.7923   0.01208   0.00593  -0.0008  0.0289  1.0000  -4.0086   0.0000   0.2444
   7.200   0.8017   0.01221   0.00606  -0.0004  0.0281  1.0000  -4.1005   0.0000   0.2439
   7.300   0.8107   0.01239   0.00623  -0.0001  0.0273  1.0000  -4.1910   0.0000   0.2433
   7.400   0.8190   0.01266   0.00651   0.0004  0.0263  1.0000  -4.2744   0.0000   0.2426
   7.500   0.8287   0.01276   0.00663   0.0007  0.0258  1.0000  -4.3690   0.0000   0.2422
   7.600   0.8381   0.01289   0.00677   0.0010  0.0252  1.0000  -4.4629   0.0000   0.2417
   7.700   0.8475   0.01304   0.00693   0.0013  0.0246  1.0000  -4.5571   0.0000   0.2413
   7.800   0.8569   0.01319   0.00709   0.0016  0.0241  1.0000  -4.6525   0.0000   0.2408
   7.900   0.8662   0.01335   0.00726   0.0019  0.0235  1.0000  -4.7485   0.0000   0.2404
   8.000   0.8752   0.01357   0.00749   0.0023  0.0230  1.0000  -4.8415   0.0000   0.2399
   8.100   0.8828   0.01397   0.00790   0.0028  0.0223  1.0000  -4.9214   0.0000   0.2392
   8.200   0.8925   0.01410   0.00805   0.0031  0.0220  1.0000  -5.0201   0.0000   0.2388
   8.300   0.9021   0.01425   0.00822   0.0034  0.0216  1.0000  -5.1178   0.0000   0.2385
   8.400   0.9116   0.01442   0.00842   0.0037  0.0212  1.0000  -5.2154   0.0000   0.2381
   8.500   0.9210   0.01460   0.00861   0.0039  0.0208  1.0000  -5.3136   0.0000   0.2377
   8.600   0.9304   0.01478   0.00881   0.0042  0.0204  1.0000  -5.4128   0.0000   0.2373
   8.700   0.9397   0.01496   0.00900   0.0045  0.0200  1.0000  -5.5137   0.0000   0.2370
   8.800   0.9491   0.01515   0.00920   0.0048  0.0196  1.0000  -5.6160   0.0000   0.2366
   8.900   0.9581   0.01538   0.00944   0.0050  0.0193  1.0000  -5.7166   0.0000   0.2363
   9.000   0.9661   0.01574   0.00981   0.0055  0.0188  1.0000  -5.8068   0.0000   0.2357
   9.100   0.9737   0.01617   0.01027   0.0060  0.0184  1.0000  -5.8898   0.0000   0.2352
   9.200   0.9834   0.01631   0.01044   0.0062  0.0182  1.0000  -5.9956   0.0000   0.2349
   9.300   0.9929   0.01648   0.01064   0.0064  0.0179  1.0000  -6.0998   0.0000   0.2346
   9.400   1.0022   0.01668   0.01087   0.0067  0.0176  1.0000  -6.2026   0.0000   0.2343
   9.500   1.0114   0.01690   0.01111   0.0070  0.0173  1.0000  -6.3045   0.0000   0.2339
   9.600   1.0204   0.01712   0.01137   0.0073  0.0171  1.0000  -6.4065   0.0000   0.2336
   9.700   1.0294   0.01735   0.01162   0.0076  0.0168  1.0000  -6.5096   0.0000   0.2332
   9.800   1.0384   0.01758   0.01187   0.0078  0.0165  1.0000  -6.6139   0.0000   0.2329
   9.900   1.0473   0.01782   0.01212   0.0081  0.0163  1.0000  -6.7223   0.0000   0.2326
  10.000   1.0561   0.01806   0.01238   0.0084  0.0161  1.0000  -6.8386   0.0000   0.2322
  10.100   1.0647   0.01833   0.01267   0.0087  0.0158  1.0000  -6.9536   0.0000   0.2319
  10.200   1.0727   0.01868   0.01303   0.0091  0.0156  1.0000  -7.0635   0.0000   0.2315
  10.300   1.0795   0.01916   0.01354   0.0096  0.0153  1.0000  -7.1606   0.0000   0.2309
  10.400   1.0839   0.01998   0.01442   0.0104  0.0150  1.0000  -7.2277   0.0000   0.2301
  10.500   1.0928   0.02021   0.01468   0.0107  0.0149  1.0000  -7.3455   0.0000   0.2298
  10.600   1.1015   0.02046   0.01497   0.0110  0.0148  1.0000  -7.4614   0.0000   0.2294
  10.700   1.1099   0.02073   0.01529   0.0114  0.0147  1.0000  -7.5755   0.0000   0.2291
  10.800   1.1181   0.02103   0.01563   0.0117  0.0145  1.0000  -7.6882   0.0000   0.2287
  10.900   1.1260   0.02135   0.01599   0.0121  0.0143  1.0000  -7.7998   0.0000   0.2283
  11.000   1.1339   0.02169   0.01637   0.0125  0.0142  1.0000  -7.9105   0.0000   0.2279
  11.100   1.1415   0.02203   0.01676   0.0129  0.0140  1.0000  -8.0206   0.0000   0.2275
  11.200   1.1490   0.02239   0.01715   0.0133  0.0139  1.0000  -8.1307   0.0000   0.2271
  11.300   1.1565   0.02274   0.01755   0.0137  0.0137  1.0000  -8.2409   0.0000   0.2266
  11.400   1.1638   0.02310   0.01795   0.0141  0.0135  1.0000  -8.3515   0.0000   0.2262
  11.500   1.1709   0.02347   0.01835   0.0145  0.0134  1.0000  -8.4624   0.0000   0.2258
  11.600   1.1780   0.02383   0.01874   0.0150  0.0133  1.0000  -8.5743   0.0000   0.2254
  11.700   1.1851   0.02418   0.01913   0.0154  0.0131  1.0000  -8.6882   0.0000   0.2249
  11.800   1.1921   0.02452   0.01950   0.0158  0.0130  1.0000  -8.8034   0.0000   0.2245
  11.900   1.1989   0.02487   0.01987   0.0162  0.0128  1.0000  -8.9192   0.0000   0.2241
  12.000   1.2055   0.02523   0.02026   0.0167  0.0127  1.0000  -9.0339   0.0000   0.2236
  12.100   1.2116   0.02563   0.02069   0.0172  0.0126  1.0000  -9.1452   0.0000   0.2232
  12.200   1.2170   0.02609   0.02118   0.0177  0.0124  1.0000  -9.2492   0.0000   0.2226
  12.300   1.2211   0.02668   0.02181   0.0184  0.0123  1.0000  -9.3395   0.0000   0.2220
  12.400   1.2231   0.02749   0.02267   0.0193  0.0121  1.0000  -9.4050   0.0000   0.2211
  12.500   1.2213   0.02867   0.02394   0.0205  0.0120  1.0000  -9.4271   0.0000   0.2200
  12.600   1.2211   0.02951   0.02486   0.0216  0.0119  1.0000  -9.4724   0.0000   0.2189
  12.700   1.2249   0.02990   0.02530   0.0224  0.0118  1.0000  -9.5657   0.0000   0.2182
  12.800   1.2281   0.03035   0.02580   0.0232  0.0118  1.0000  -9.6531   0.0000   0.2174
  12.900   1.2307   0.03085   0.02636   0.0240  0.0117  1.0000  -9.7345   0.0000   0.2167
  13.000   1.2328   0.03141   0.02698   0.0248  0.0117  1.0000  -9.8104   0.0000   0.2159
  13.100   1.2345   0.03202   0.02764   0.0255  0.0116  1.0000  -9.8824   0.0000   0.2152
  13.200   1.2358   0.03267   0.02836   0.0262  0.0116  1.0000  -9.9506   0.0000   0.2145
  13.300   1.2367   0.03338   0.02913   0.0268  0.0115  1.0000  -10.0148   0.0000   0.2138
  13.400   1.2373   0.03415   0.02996   0.0273  0.0114  1.0000  -10.0751   0.0000   0.2132
  13.500   1.2375   0.03499   0.03086   0.0278  0.0114  1.0000  -10.1315   0.0000   0.2127
  13.600   1.2373   0.03589   0.03182   0.0281  0.0113  1.0000  -10.1840   0.0000   0.2122
  13.700   1.2368   0.03686   0.03285   0.0284  0.0113  1.0000  -10.2325   0.0000   0.2118
  13.800   1.2360   0.03791   0.03397   0.0285  0.0112  1.0000  -10.2768   0.0000   0.2115
  13.900   1.2348   0.03905   0.03518   0.0285  0.0111  1.0000  -10.3171   0.0000   0.2113
  14.000   1.2333   0.04029   0.03648   0.0283  0.0111  1.0000  -10.3526   0.0000   0.2112
  14.100   1.2314   0.04162   0.03788   0.0280  0.0110  1.0000  -10.3834   0.0000   0.2112
  14.200   1.2292   0.04307   0.03940   0.0275  0.0110  1.0000  -10.4094   0.0000   0.2114
  14.300   1.2266   0.04464   0.04103   0.0269  0.0110  1.0000  -10.4297   0.0000   0.2116
  14.400   1.2235   0.04634   0.04280   0.0261  0.0109  1.0000  -10.4439   0.0000   0.2120
  14.500   1.2201   0.04818   0.04470   0.0251  0.0109  1.0000  -10.4518   0.0000   0.2125
  14.600   1.2162   0.05017   0.04676   0.0240  0.0109  1.0000  -10.4527   0.0000   0.2132
  14.700   1.2118   0.05231   0.04897   0.0227  0.0108  1.0000  -10.4452   0.0000   0.2140
  14.800   1.2067   0.05462   0.05135   0.0212  0.0108  1.0000  -10.4291   0.0000   0.2149
  14.900   1.2011   0.05711   0.05391   0.0196  0.0108  1.0000  -10.4037   0.0000   0.2160
  15.000   1.1947   0.05978   0.05665   0.0178  0.0108  1.0000  -10.3680   0.0000   0.2172
  15.100   1.1876   0.06264   0.05958   0.0159  0.0108  1.0000  -10.3204   0.0000   0.2185
  15.200   1.1796   0.06569   0.06270   0.0139  0.0108  1.0000  -10.2605   0.0000   0.2199
  15.300   1.1708   0.06894   0.06603   0.0117  0.0108  1.0000  -10.1877   0.0000   0.2214
  15.400   1.1611   0.07241   0.06957   0.0095  0.0108  1.0000  -10.1009   0.0000   0.2231
  15.500   1.1504   0.07608   0.07331   0.0072  0.0108  1.0000  -9.9990   0.0000   0.2248
  15.600   1.1387   0.07997   0.07727   0.0047  0.0108  1.0000  -9.8813   0.0000   0.2267
  15.700   1.1260   0.08409   0.08146   0.0022  0.0109  1.0000  -9.7472   0.0000   0.2287
  15.800   1.1123   0.08846   0.08590  -0.0004  0.0109  1.0000  -9.5951   0.0000   0.2309
  15.900   1.0973   0.09307   0.09058  -0.0031  0.0109  1.0000  -9.4232   0.0000   0.2332
  16.000   1.0812   0.09799   0.09557  -0.0059  0.0110  1.0000  -9.2289   0.0000   0.2358
  16.100   1.0638   0.10333   0.10098  -0.0090  0.0111  1.0000  -9.0072   0.0000   0.2386
  16.200   1.0444   0.10920   0.10692  -0.0123  0.0112  1.0000  -8.7479   0.0000   0.2419
  16.300   1.0219   0.11587   0.11366  -0.0160  0.0113  1.0000  -8.4298   0.0000   0.2457
  16.400   0.9922   0.12448   0.12236  -0.0207  0.0114  1.0000  -7.9766   0.0000   0.2510
  17.400   0.5481   0.17514   0.17338  -0.0257  0.0154  1.0000  -1.7559   0.0000   0.2855
  17.500   0.5507   0.17584   0.17409  -0.0259  0.0153  1.0000  -1.7944   0.0000   0.2855
  17.600   0.5534   0.17655   0.17479  -0.0261  0.0152  1.0000  -1.8365   0.0000   0.2855
  17.700   0.5559   0.17731   0.17555  -0.0263  0.0151  1.0000  -1.8778   0.0000   0.2854
  17.800   0.5561   0.17883   0.17707  -0.0266  0.0150  1.0000  -1.8623   0.0000   0.2859
  17.900   0.5565   0.18022   0.17846  -0.0272  0.0150  1.0000  -1.8326   0.0000   0.2870
  18.000   0.5567   0.18165   0.17990  -0.0279  0.0150  1.0000  -1.7954   0.0000   0.2881
  18.100   0.5561   0.18328   0.18152  -0.0287  0.0149  1.0000  -1.7370   0.0000   0.2897
  18.200   0.5499   0.18653   0.18477  -0.0306  0.0143  1.0000  -1.4927   0.0000   0.2943
  18.300   0.5508   0.18784   0.18608  -0.0312  0.0138  1.0000  -1.4704   0.0000   0.2952
  18.400   0.5521   0.18894   0.18719  -0.0317  0.0135  1.0000  -1.4661   0.0000   0.2960
  18.500   0.5535   0.19002   0.18827  -0.0322  0.0133  1.0000  -1.4668   0.0000   0.2966
  18.600   0.5550   0.19107   0.18932  -0.0327  0.0131  1.0000  -1.4695   0.0000   0.2972
  18.700   0.5566   0.19210   0.19035  -0.0332  0.0129  1.0000  -1.4741   0.0000   0.2978
  18.800   0.5582   0.19310   0.19135  -0.0336  0.0128  1.0000  -1.4811   0.0000   0.2984
  18.900   0.5599   0.19407   0.19233  -0.0341  0.0127  1.0000  -1.4906   0.0000   0.2989
  19.000   0.5616   0.19502   0.19328  -0.0345  0.0126  1.0000  -1.5025   0.0000   0.2994
  19.100   0.5634   0.19595   0.19421  -0.0350  0.0125  1.0000  -1.5172   0.0000   0.2999
  19.200   0.5653   0.19685   0.19511  -0.0354  0.0124  1.0000  -1.5347   0.0000   0.3003
  19.300   0.5673   0.19772   0.19598  -0.0358  0.0123  1.0000  -1.5552   0.0000   0.3006
  19.400   0.5694   0.19857   0.19684  -0.0362  0.0122  1.0000  -1.5791   0.0000   0.3009
  19.500   0.5716   0.19941   0.19768  -0.0365  0.0122  1.0000  -1.6069   0.0000   0.3011
  19.600   0.5739   0.20021   0.19849  -0.0368  0.0121  1.0000  -1.6395   0.0000   0.3012
  19.700   0.5766   0.20100   0.19927  -0.0370  0.0120  1.0000  -1.6792   0.0000   0.3011
  19.800   0.5794   0.20190   0.20018  -0.0371  0.0119  1.0000  -1.7260   0.0000   0.3008
  19.900   0.5802   0.20341   0.20168  -0.0376  0.0119  1.0000  -1.6969   0.0000   0.3015
  20.000   0.5807   0.20479   0.20306  -0.0383  0.0119  1.0000  -1.6588   0.0000   0.3025


