xflr5 v6.47

 Calculated polar for: NACA 0010

 1 1 Reynolds number fixed          Mach number fixed         

 xtrf =   1.000 (top)        1.000 (bottom)
 Mach =   0.000     Re =     1.300 e 6     Ncrit =   9.000

  alpha     CL        CD       CDp       Cm    Top Xtr Bot Xtr   Cpmin    Chinge    XCp    
 ------- -------- --------- --------- -------- ------- ------- -------- --------- ---------
 -10.000  -1.0772   0.01493   0.00959  -0.0054  1.0000  0.0134  -7.1109   0.0000   0.2352
  -9.900  -1.0677   0.01475   0.00940  -0.0051  1.0000  0.0136  -6.9933   0.0000   0.2355
  -9.800  -1.0581   0.01458   0.00921  -0.0049  1.0000  0.0138  -6.8795   0.0000   0.2358
  -9.700  -1.0486   0.01441   0.00903  -0.0047  1.0000  0.0140  -6.7665   0.0000   0.2361
  -9.600  -1.0390   0.01425   0.00885  -0.0045  1.0000  0.0142  -6.6543   0.0000   0.2364
  -9.500  -1.0293   0.01409   0.00867  -0.0043  1.0000  0.0144  -6.5426   0.0000   0.2367
  -9.400  -1.0196   0.01393   0.00850  -0.0040  1.0000  0.0146  -6.4312   0.0000   0.2369
  -9.300  -1.0099   0.01379   0.00834  -0.0038  1.0000  0.0148  -6.3198   0.0000   0.2372
  -9.200  -1.0000   0.01366   0.00819  -0.0036  1.0000  0.0149  -6.2081   0.0000   0.2375
  -9.100  -0.9904   0.01350   0.00801  -0.0034  1.0000  0.0151  -6.1002   0.0000   0.2378
  -9.000  -0.9822   0.01315   0.00764  -0.0030  1.0000  0.0156  -6.0098   0.0000   0.2384
  -8.900  -0.9730   0.01293   0.00741  -0.0027  1.0000  0.0160  -5.9071   0.0000   0.2388
  -8.800  -0.9635   0.01276   0.00724  -0.0024  1.0000  0.0163  -5.8000   0.0000   0.2391
  -8.700  -0.9538   0.01262   0.00709  -0.0022  1.0000  0.0167  -5.6917   0.0000   0.2395
  -8.600  -0.9441   0.01250   0.00696  -0.0019  1.0000  0.0170  -5.5835   0.0000   0.2398
  -8.500  -0.9344   0.01237   0.00682  -0.0017  1.0000  0.0174  -5.4765   0.0000   0.2402
  -8.400  -0.9246   0.01225   0.00670  -0.0015  1.0000  0.0177  -5.3708   0.0000   0.2405
  -8.300  -0.9149   0.01214   0.00657  -0.0012  1.0000  0.0180  -5.2660   0.0000   0.2409
  -8.200  -0.9051   0.01204   0.00645  -0.0010  1.0000  0.0183  -5.1619   0.0000   0.2413
  -8.100  -0.8954   0.01192   0.00633  -0.0007  1.0000  0.0185  -5.0595   0.0000   0.2417
  -8.000  -0.8869   0.01166   0.00605  -0.0002  1.0000  0.0192  -4.9703   0.0000   0.2423
  -7.900  -0.8777   0.01149   0.00588   0.0001  1.0000  0.0197  -4.8728   0.0000   0.2428
  -7.800  -0.8684   0.01136   0.00575   0.0005  1.0000  0.0202  -4.7737   0.0000   0.2432
  -7.700  -0.8589   0.01124   0.00562   0.0008  1.0000  0.0207  -4.6747   0.0000   0.2437
  -7.600  -0.8494   0.01113   0.00551   0.0011  1.0000  0.0212  -4.5763   0.0000   0.2442
  -7.500  -0.8398   0.01103   0.00539   0.0014  1.0000  0.0217  -4.4788   0.0000   0.2447
  -7.400  -0.8303   0.01093   0.00529   0.0017  1.0000  0.0221  -4.3816   0.0000   0.2452
  -7.300  -0.8209   0.01081   0.00515   0.0020  1.0000  0.0225  -4.2879   0.0000   0.2457
  -7.200  -0.8120   0.01063   0.00498   0.0025  1.0000  0.0234  -4.1980   0.0000   0.2464
  -7.100  -0.8027   0.01051   0.00486   0.0028  1.0000  0.0241  -4.1049   0.0000   0.2469
  -7.000  -0.7934   0.01040   0.00475   0.0032  1.0000  0.0249  -4.0117   0.0000   0.2475
  -6.900  -0.7840   0.01031   0.00466   0.0035  1.0000  0.0256  -3.9262   0.0000   0.2481
  -6.800  -0.7745   0.01023   0.00457   0.0038  1.0000  0.0262  -3.8421   0.0000   0.2487
  -6.700  -0.7654   0.01010   0.00443   0.0042  1.0000  0.0271  -3.7620   0.0000   0.2493
  -6.600  -0.7563   0.00997   0.00432   0.0046  1.0000  0.0282  -3.6815   0.0000   0.2500
  -6.500  -0.7471   0.00987   0.00422   0.0050  1.0000  0.0292  -3.6003   0.0000   0.2507
  -6.400  -0.7378   0.00978   0.00413   0.0054  1.0000  0.0302  -3.5195   0.0000   0.2514
  -6.300  -0.7284   0.00971   0.00405   0.0057  1.0000  0.0309  -3.4392   0.0000   0.2520
  -6.200  -0.7195   0.00957   0.00393   0.0062  1.0000  0.0324  -3.3627   0.0000   0.2528
  -6.100  -0.7103   0.00947   0.00384   0.0066  1.0000  0.0338  -3.2846   0.0000   0.2536
  -6.000  -0.7011   0.00939   0.00375   0.0069  1.0000  0.0350  -3.2066   0.0000   0.2543
  -5.900  -0.6919   0.00930   0.00366   0.0073  1.0000  0.0364  -3.1299   0.0000   0.2551
  -5.800  -0.6828   0.00919   0.00357   0.0077  1.0000  0.0382  -3.0542   0.0000   0.2559
  -5.700  -0.6726   0.00910   0.00349   0.0079  0.9999  0.0400  -2.9745   0.0000   0.2564
  -5.600  -0.6589   0.00899   0.00339   0.0073  0.9994  0.0423  -2.8831   0.0000   0.2558
  -5.500  -0.6452   0.00889   0.00330   0.0067  0.9989  0.0451  -2.7923   0.0000   0.2552
  -5.400  -0.6315   0.00878   0.00321   0.0061  0.9983  0.0481  -2.7026   0.0000   0.2545
  -5.300  -0.6177   0.00868   0.00313   0.0055  0.9978  0.0514  -2.6134   0.0000   0.2538
  -5.200  -0.6040   0.00856   0.00304   0.0048  0.9973  0.0552  -2.5315   0.0000   0.2531
  -5.100  -0.5905   0.00846   0.00295   0.0043  0.9966  0.0591  -2.4531   0.0000   0.2524
  -5.000  -0.5769   0.00835   0.00287   0.0037  0.9959  0.0637  -2.3753   0.0000   0.2516
  -4.900  -0.5633   0.00824   0.00278   0.0031  0.9951  0.0690  -2.2981   0.0000   0.2508
  -4.800  -0.5496   0.00812   0.00270   0.0025  0.9945  0.0750  -2.2215   0.0000   0.2499
  -4.700  -0.5358   0.00800   0.00262   0.0019  0.9938  0.0818  -2.1454   0.0000   0.2489
  -4.600  -0.5219   0.00789   0.00254   0.0012  0.9933  0.0891  -2.0698   0.0000   0.2478
  -4.500  -0.5082   0.00777   0.00247   0.0006  0.9926  0.0969  -1.9957   0.0000   0.2467
  -4.400  -0.4950   0.00765   0.00239   0.0002  0.9914  0.1052  -1.9241   0.0000   0.2458
  -4.300  -0.4816   0.00753   0.00231  -0.0004  0.9904  0.1149  -1.8524   0.0000   0.2447
  -4.200  -0.4679   0.00741   0.00224  -0.0010  0.9895  0.1256  -1.7867   0.0000   0.2435
  -4.100  -0.4541   0.00728   0.00217  -0.0016  0.9888  0.1372  -1.7221   0.0000   0.2420
  -4.000  -0.4402   0.00715   0.00209  -0.0023  0.9880  0.1495  -1.6578   0.0000   0.2405
  -3.900  -0.4263   0.00703   0.00203  -0.0029  0.9873  0.1621  -1.5945   0.0000   0.2388
  -3.800  -0.4139   0.00691   0.00196  -0.0033  0.9854  0.1751  -1.5353   0.0000   0.2379
  -3.700  -0.4014   0.00678   0.00190  -0.0036  0.9835  0.1894  -1.4766   0.0000   0.2368
  -3.600  -0.3885   0.00666   0.00183  -0.0040  0.9819  0.2037  -1.4176   0.0000   0.2355
  -3.500  -0.3755   0.00654   0.00177  -0.0045  0.9804  0.2182  -1.3639   0.0000   0.2340
  -3.400  -0.3641   0.00642   0.00172  -0.0045  0.9774  0.2329  -1.3146   0.0000   0.2335
  -3.300  -0.3522   0.00631   0.00166  -0.0047  0.9747  0.2480  -1.2646   0.0000   0.2326
  -3.200  -0.3399   0.00620   0.00161  -0.0050  0.9726  0.2630  -1.2142   0.0000   0.2314
  -3.100  -0.3292   0.00610   0.00156  -0.0049  0.9685  0.2777  -1.1678   0.0000   0.2313
  -3.000  -0.3177   0.00600   0.00151  -0.0049  0.9653  0.2930  -1.1224   0.0000   0.2306
  -2.900  -0.3069   0.00590   0.00147  -0.0048  0.9613  0.3079  -1.0804   0.0000   0.2304
  -2.700  -0.2854   0.00572   0.00138  -0.0046  0.9526  0.3372  -0.9982   0.0000   0.2301
  -2.600  -0.2749   0.00563   0.00134  -0.0044  0.9476  0.3521  -0.9587   0.0000   0.2302
  -2.500  -0.2644   0.00555   0.00130  -0.0042  0.9427  0.3666  -0.9223   0.0000   0.2303
  -2.400  -0.2540   0.00547   0.00127  -0.0040  0.9371  0.3814  -0.8863   0.0000   0.2305
  -2.300  -0.2436   0.00540   0.00123  -0.0038  0.9314  0.3960  -0.8506   0.0000   0.2306
  -2.200  -0.2333   0.00533   0.00120  -0.0036  0.9253  0.4106  -0.8173   0.0000   0.2309
  -2.100  -0.2228   0.00526   0.00117  -0.0034  0.9188  0.4251  -0.7849   0.0000   0.2311
  -2.000  -0.2124   0.00520   0.00113  -0.0032  0.9123  0.4395  -0.7529   0.0000   0.2314
  -1.900  -0.2019   0.00514   0.00110  -0.0030  0.9049  0.4540  -0.7230   0.0000   0.2316
  -1.800  -0.1914   0.00508   0.00107  -0.0028  0.8977  0.4682  -0.6938   0.0000   0.2317
  -1.700  -0.1809   0.00503   0.00105  -0.0026  0.8901  0.4826  -0.6658   0.0000   0.2321
  -1.600  -0.1704   0.00498   0.00102  -0.0024  0.8817  0.4968  -0.6389   0.0000   0.2322
  -1.500  -0.1598   0.00493   0.00100  -0.0023  0.8734  0.5110  -0.6131   0.0000   0.2323
  -1.400  -0.1493   0.00489   0.00097  -0.0021  0.8648  0.5251  -0.5885   0.0000   0.2326
  -1.300  -0.1387   0.00485   0.00095  -0.0019  0.8555  0.5392  -0.5650   0.0000   0.2327
  -1.200  -0.1280   0.00482   0.00093  -0.0018  0.8461  0.5531  -0.5424   0.0000   0.2328
  -1.100  -0.1174   0.00478   0.00092  -0.0016  0.8365  0.5670  -0.5211   0.0000   0.2330
  -1.000  -0.1068   0.00476   0.00090  -0.0014  0.8265  0.5807  -0.5009   0.0000   0.2332
  -0.900  -0.0962   0.00473   0.00088  -0.0013  0.8160  0.5944  -0.4815   0.0000   0.2333
  -0.800  -0.0855   0.00471   0.00087  -0.0011  0.8053  0.6079  -0.4631   0.0000   0.2333
  -0.700  -0.0748   0.00469   0.00086  -0.0010  0.7946  0.6213  -0.4456   0.0000   0.2334
  -0.600  -0.0642   0.00467   0.00085  -0.0008  0.7836  0.6346  -0.4291   0.0000   0.2336
  -0.500  -0.0535   0.00466   0.00084  -0.0007  0.7722  0.6478  -0.4134   0.0000   0.2337
  -0.400  -0.0428   0.00465   0.00083  -0.0006  0.7604  0.6609  -0.3985   0.0000   0.2337
  -0.300  -0.0321   0.00464   0.00083  -0.0004  0.7485  0.6740  -0.3842   0.0000   0.2335
  -0.200  -0.0213   0.00463   0.00082  -0.0003  0.7366  0.6869  -0.3705   0.0000   0.2333
  -0.100  -0.0107   0.00463   0.00082  -0.0001  0.7244  0.6997  -0.3575   0.0000   0.2333
   0.000   0.0000   0.00462   0.00082  -0.0000  0.7122  0.7122  -0.3450   0.0000   0.4456
   0.100   0.0107   0.00463   0.00082   0.0001  0.6997  0.7245  -0.3575   0.0000   0.2333
   0.200   0.0213   0.00463   0.00082   0.0003  0.6869  0.7366  -0.3705   0.0000   0.2333
   0.300   0.0321   0.00464   0.00083   0.0004  0.6740  0.7485  -0.3842   0.0000   0.2335
   0.400   0.0428   0.00465   0.00083   0.0006  0.6609  0.7604  -0.3985   0.0000   0.2337
   0.500   0.0535   0.00466   0.00084   0.0007  0.6478  0.7722  -0.4134   0.0000   0.2338
   0.600   0.0642   0.00467   0.00085   0.0008  0.6346  0.7836  -0.4291   0.0000   0.2336
   0.700   0.0748   0.00469   0.00086   0.0010  0.6213  0.7946  -0.4456   0.0000   0.2334
   0.800   0.0855   0.00471   0.00087   0.0011  0.6079  0.8053  -0.4631   0.0000   0.2333
   0.900   0.0962   0.00473   0.00088   0.0013  0.5944  0.8160  -0.4815   0.0000   0.2333
   1.000   0.1068   0.00476   0.00090   0.0014  0.5807  0.8265  -0.5009   0.0000   0.2332
   1.100   0.1174   0.00478   0.00092   0.0016  0.5670  0.8365  -0.5211   0.0000   0.2330
   1.200   0.1280   0.00482   0.00093   0.0018  0.5531  0.8461  -0.5424   0.0000   0.2328
   1.300   0.1387   0.00485   0.00095   0.0019  0.5392  0.8555  -0.5650   0.0000   0.2327
   1.400   0.1493   0.00489   0.00097   0.0021  0.5251  0.8648  -0.5885   0.0000   0.2326
   1.500   0.1598   0.00493   0.00100   0.0023  0.5110  0.8734  -0.6131   0.0000   0.2323
   1.600   0.1704   0.00498   0.00102   0.0024  0.4968  0.8817  -0.6389   0.0000   0.2322
   1.700   0.1810   0.00503   0.00105   0.0026  0.4826  0.8901  -0.6658   0.0000   0.2321
   1.800   0.1914   0.00508   0.00107   0.0028  0.4682  0.8977  -0.6938   0.0000   0.2318
   1.900   0.2019   0.00514   0.00110   0.0030  0.4540  0.9049  -0.7230   0.0000   0.2316
   2.000   0.2124   0.00520   0.00113   0.0032  0.4395  0.9123  -0.7529   0.0000   0.2314
   2.100   0.2228   0.00526   0.00117   0.0034  0.4251  0.9188  -0.7849   0.0000   0.2311
   2.200   0.2333   0.00533   0.00120   0.0036  0.4106  0.9253  -0.8173   0.0000   0.2309
   2.300   0.2436   0.00540   0.00123   0.0038  0.3960  0.9314  -0.8506   0.0000   0.2306
   2.400   0.2540   0.00547   0.00127   0.0040  0.3814  0.9371  -0.8864   0.0000   0.2305
   2.500   0.2644   0.00555   0.00130   0.0042  0.3666  0.9426  -0.9223   0.0000   0.2303
   2.600   0.2749   0.00563   0.00134   0.0044  0.3521  0.9476  -0.9588   0.0000   0.2302
   2.700   0.2854   0.00572   0.00138   0.0046  0.3372  0.9526  -0.9982   0.0000   0.2301
   2.900   0.3069   0.00590   0.00147   0.0048  0.3079  0.9613  -1.0804   0.0000   0.2304
   3.000   0.3177   0.00600   0.00151   0.0049  0.2930  0.9652  -1.1224   0.0000   0.2306
   3.100   0.3292   0.00610   0.00156   0.0049  0.2777  0.9685  -1.1678   0.0000   0.2313
   3.200   0.3399   0.00620   0.00161   0.0050  0.2630  0.9726  -1.2142   0.0000   0.2314
   3.300   0.3522   0.00631   0.00166   0.0047  0.2480  0.9747  -1.2646   0.0000   0.2326
   3.400   0.3641   0.00642   0.00172   0.0045  0.2329  0.9774  -1.3146   0.0000   0.2335
   3.500   0.3755   0.00654   0.00177   0.0045  0.2182  0.9804  -1.3639   0.0000   0.2340
   3.600   0.3885   0.00666   0.00183   0.0040  0.2037  0.9819  -1.4176   0.0000   0.2355
   3.700   0.4014   0.00678   0.00190   0.0036  0.1894  0.9836  -1.4766   0.0000   0.2369
   3.800   0.4139   0.00691   0.00196   0.0033  0.1751  0.9855  -1.5353   0.0000   0.2379
   3.900   0.4263   0.00703   0.00203   0.0029  0.1621  0.9873  -1.5945   0.0000   0.2388
   4.000   0.4402   0.00715   0.00209   0.0023  0.1495  0.9881  -1.6579   0.0000   0.2405
   4.100   0.4541   0.00728   0.00217   0.0016  0.1372  0.9888  -1.7221   0.0000   0.2421
   4.200   0.4679   0.00741   0.00224   0.0010  0.1256  0.9895  -1.7867   0.0000   0.2435
   4.300   0.4816   0.00753   0.00231   0.0004  0.1149  0.9904  -1.8525   0.0000   0.2447
   4.400   0.4950   0.00765   0.00239  -0.0002  0.1052  0.9914  -1.9241   0.0000   0.2458
   4.500   0.5082   0.00777   0.00247  -0.0006  0.0969  0.9926  -1.9957   0.0000   0.2467
   4.600   0.5219   0.00789   0.00254  -0.0012  0.0891  0.9933  -2.0699   0.0000   0.2478
   4.700   0.5358   0.00800   0.00262  -0.0019  0.0818  0.9939  -2.1454   0.0000   0.2489
   4.800   0.5496   0.00812   0.00270  -0.0025  0.0750  0.9945  -2.2215   0.0000   0.2499
   4.900   0.5633   0.00824   0.00278  -0.0031  0.0690  0.9952  -2.2982   0.0000   0.2508
   5.000   0.5769   0.00835   0.00287  -0.0037  0.0637  0.9959  -2.3753   0.0000   0.2516
   5.100   0.5905   0.00846   0.00295  -0.0043  0.0591  0.9966  -2.4531   0.0000   0.2524
   5.200   0.6040   0.00856   0.00304  -0.0049  0.0552  0.9973  -2.5315   0.0000   0.2531
   5.300   0.6177   0.00868   0.00313  -0.0055  0.0514  0.9978  -2.6135   0.0000   0.2538
   5.400   0.6315   0.00878   0.00321  -0.0061  0.0481  0.9983  -2.7027   0.0000   0.2545
   5.500   0.6453   0.00889   0.00330  -0.0067  0.0451  0.9989  -2.7924   0.0000   0.2552
   5.600   0.6589   0.00899   0.00339  -0.0073  0.0423  0.9994  -2.8832   0.0000   0.2558
   5.700   0.6726   0.00910   0.00349  -0.0079  0.0399  0.9999  -2.9746   0.0000   0.2564
   5.800   0.6827   0.00919   0.00357  -0.0077  0.0382  1.0000  -3.0539   0.0000   0.2559
   5.900   0.6918   0.00930   0.00366  -0.0073  0.0364  1.0000  -3.1297   0.0000   0.2551
   6.000   0.7010   0.00939   0.00375  -0.0069  0.0350  1.0000  -3.2064   0.0000   0.2543
   6.100   0.7103   0.00947   0.00383  -0.0065  0.0338  1.0000  -3.2843   0.0000   0.2536
   6.200   0.7194   0.00957   0.00393  -0.0062  0.0325  1.0000  -3.3625   0.0000   0.2528
   6.300   0.7283   0.00971   0.00405  -0.0057  0.0309  1.0000  -3.4390   0.0000   0.2520
   6.400   0.7377   0.00978   0.00413  -0.0054  0.0302  1.0000  -3.5193   0.0000   0.2513
   6.500   0.7470   0.00987   0.00422  -0.0050  0.0292  1.0000  -3.6000   0.0000   0.2507
   6.600   0.7563   0.00997   0.00432  -0.0046  0.0282  1.0000  -3.6813   0.0000   0.2500
   6.700   0.7653   0.01010   0.00443  -0.0042  0.0271  1.0000  -3.7618   0.0000   0.2493
   6.800   0.7744   0.01023   0.00457  -0.0038  0.0262  1.0000  -3.8419   0.0000   0.2487
   6.900   0.7839   0.01031   0.00466  -0.0035  0.0256  1.0000  -3.9260   0.0000   0.2481
   7.000   0.7933   0.01040   0.00475  -0.0032  0.0249  1.0000  -4.0115   0.0000   0.2475
   7.100   0.8027   0.01051   0.00486  -0.0028  0.0241  1.0000  -4.1047   0.0000   0.2469
   7.200   0.8119   0.01063   0.00498  -0.0024  0.0234  1.0000  -4.1978   0.0000   0.2463
   7.300   0.8209   0.01081   0.00515  -0.0020  0.0225  1.0000  -4.2877   0.0000   0.2457
   7.400   0.8302   0.01093   0.00529  -0.0017  0.0221  1.0000  -4.3815   0.0000   0.2452
   7.500   0.8398   0.01103   0.00539  -0.0014  0.0217  1.0000  -4.4786   0.0000   0.2447
   7.600   0.8494   0.01113   0.00551  -0.0011  0.0212  1.0000  -4.5762   0.0000   0.2442
   7.700   0.8589   0.01124   0.00562  -0.0008  0.0207  1.0000  -4.6745   0.0000   0.2437
   7.800   0.8683   0.01136   0.00575  -0.0004  0.0202  1.0000  -4.7735   0.0000   0.2432
   7.900   0.8777   0.01149   0.00588  -0.0001  0.0197  1.0000  -4.8727   0.0000   0.2428
   8.000   0.8869   0.01166   0.00605   0.0002  0.0192  1.0000  -4.9701   0.0000   0.2423
   8.100   0.8954   0.01192   0.00633   0.0007  0.0185  1.0000  -5.0595   0.0000   0.2416
   8.200   0.9051   0.01204   0.00645   0.0010  0.0183  1.0000  -5.1618   0.0000   0.2412
   8.300   0.9149   0.01214   0.00657   0.0012  0.0180  1.0000  -5.2660   0.0000   0.2409
   8.400   0.9246   0.01225   0.00669   0.0015  0.0177  1.0000  -5.3708   0.0000   0.2405
   8.500   0.9344   0.01237   0.00682   0.0017  0.0174  1.0000  -5.4765   0.0000   0.2402
   8.600   0.9441   0.01250   0.00695   0.0019  0.0170  1.0000  -5.5835   0.0000   0.2398
   8.700   0.9538   0.01262   0.00709   0.0022  0.0167  1.0000  -5.6917   0.0000   0.2395
   8.800   0.9635   0.01276   0.00724   0.0024  0.0163  1.0000  -5.8000   0.0000   0.2391
   8.900   0.9730   0.01293   0.00741   0.0027  0.0160  1.0000  -5.9072   0.0000   0.2388
   9.000   0.9822   0.01315   0.00764   0.0030  0.0156  1.0000  -6.0098   0.0000   0.2384
   9.100   0.9904   0.01350   0.00801   0.0034  0.0151  1.0000  -6.1003   0.0000   0.2379
   9.200   1.0000   0.01366   0.00819   0.0036  0.0149  1.0000  -6.2083   0.0000   0.2375
   9.300   1.0099   0.01379   0.00834   0.0038  0.0148  1.0000  -6.3199   0.0000   0.2372
   9.400   1.0197   0.01393   0.00850   0.0040  0.0146  1.0000  -6.4314   0.0000   0.2370
   9.500   1.0294   0.01409   0.00867   0.0043  0.0144  1.0000  -6.5428   0.0000   0.2367
   9.600   1.0390   0.01425   0.00885   0.0045  0.0142  1.0000  -6.6545   0.0000   0.2364
   9.700   1.0486   0.01441   0.00903   0.0047  0.0140  1.0000  -6.7667   0.0000   0.2361
   9.800   1.0582   0.01458   0.00921   0.0049  0.0138  1.0000  -6.8797   0.0000   0.2358
   9.900   1.0677   0.01475   0.00940   0.0051  0.0136  1.0000  -6.9936   0.0000   0.2355
  10.000   1.0772   0.01493   0.00959   0.0054  0.0134  1.0000  -7.1112   0.0000   0.2352
  10.100   1.0867   0.01510   0.00978   0.0056  0.0132  1.0000  -7.2374   0.0000   0.2349
  10.200   1.0961   0.01529   0.00998   0.0058  0.0130  1.0000  -7.3636   0.0000   0.2346
  10.300   1.1052   0.01551   0.01021   0.0061  0.0128  1.0000  -7.4886   0.0000   0.2343
  10.400   1.1141   0.01576   0.01048   0.0064  0.0126  1.0000  -7.6105   0.0000   0.2339
  10.500   1.1223   0.01610   0.01084   0.0067  0.0123  1.0000  -7.7249   0.0000   0.2335
  10.600   1.1290   0.01662   0.01141   0.0073  0.0120  1.0000  -7.8211   0.0000   0.2329
  10.700   1.1372   0.01694   0.01177   0.0077  0.0119  1.0000  -7.9362   0.0000   0.2325
  10.800   1.1466   0.01712   0.01197   0.0079  0.0118  1.0000  -8.0667   0.0000   0.2322
  10.900   1.1558   0.01731   0.01218   0.0081  0.0117  1.0000  -8.1968   0.0000   0.2319
  11.000   1.1649   0.01751   0.01241   0.0084  0.0116  1.0000  -8.3263   0.0000   0.2316
  11.100   1.1739   0.01772   0.01265   0.0086  0.0115  1.0000  -8.4555   0.0000   0.2313
  11.200   1.1829   0.01794   0.01289   0.0089  0.0114  1.0000  -8.5852   0.0000   0.2310
  11.300   1.1918   0.01816   0.01313   0.0092  0.0113  1.0000  -8.7157   0.0000   0.2307
  11.400   1.2006   0.01838   0.01338   0.0095  0.0111  1.0000  -8.8471   0.0000   0.2304
  11.500   1.2094   0.01861   0.01363   0.0097  0.0110  1.0000  -8.9793   0.0000   0.2301
  11.600   1.2181   0.01883   0.01388   0.0100  0.0109  1.0000  -9.1124   0.0000   0.2298
  11.700   1.2268   0.01906   0.01413   0.0103  0.0107  1.0000  -9.2464   0.0000   0.2294
  11.800   1.2354   0.01929   0.01438   0.0106  0.0106  1.0000  -9.3809   0.0000   0.2291
  11.900   1.2439   0.01952   0.01463   0.0108  0.0105  1.0000  -9.5159   0.0000   0.2288
  12.000   1.2524   0.01976   0.01489   0.0111  0.0103  1.0000  -9.6507   0.0000   0.2285
  12.100   1.2606   0.02002   0.01517   0.0115  0.0102  1.0000  -9.7848   0.0000   0.2281
  12.200   1.2687   0.02029   0.01546   0.0118  0.0101  1.0000  -9.9174   0.0000   0.2278
  12.300   1.2765   0.02058   0.01577   0.0121  0.0100  1.0000  -10.0486   0.0000   0.2274
  12.400   1.2841   0.02089   0.01611   0.0125  0.0099  1.0000  -10.1774   0.0000   0.2270
  12.500   1.2912   0.02124   0.01648   0.0130  0.0098  1.0000  -10.3026   0.0000   0.2266
  12.600   1.2978   0.02163   0.01691   0.0134  0.0097  1.0000  -10.4221   0.0000   0.2261
  12.700   1.3036   0.02209   0.01741   0.0140  0.0096  1.0000  -10.5325   0.0000   0.2255
  12.800   1.3081   0.02267   0.01803   0.0147  0.0094  1.0000  -10.6287   0.0000   0.2249
  12.900   1.3106   0.02342   0.01885   0.0156  0.0093  1.0000  -10.7014   0.0000   0.2241
  13.000   1.3105   0.02438   0.01990   0.0168  0.0091  1.0000  -10.7450   0.0000   0.2231
  13.100   1.3173   0.02468   0.02024   0.0172  0.0091  1.0000  -10.8720   0.0000   0.2226
  13.200   1.3238   0.02500   0.02059   0.0177  0.0091  1.0000  -10.9972   0.0000   0.2222
  13.300   1.3301   0.02533   0.02095   0.0182  0.0091  1.0000  -11.1202   0.0000   0.2217
  13.400   1.3360   0.02568   0.02134   0.0187  0.0090  1.0000  -11.2406   0.0000   0.2212
  13.500   1.3412   0.02604   0.02174   0.0193  0.0090  1.0000  -11.3559   0.0000   0.2206
  13.600   1.3454   0.02642   0.02215   0.0201  0.0089  1.0000  -11.4635   0.0000   0.2200
  13.700   1.3491   0.02681   0.02258   0.0209  0.0089  1.0000  -11.5668   0.0000   0.2192
  13.800   1.3524   0.02723   0.02304   0.0217  0.0088  1.0000  -11.6670   0.0000   0.2185
  13.900   1.3554   0.02768   0.02353   0.0225  0.0088  1.0000  -11.7644   0.0000   0.2177
  14.000   1.3581   0.02816   0.02405   0.0233  0.0088  1.0000  -11.8588   0.0000   0.2170
  14.100   1.3606   0.02868   0.02461   0.0240  0.0087  1.0000  -11.9504   0.0000   0.2163
  14.200   1.3627   0.02923   0.02520   0.0247  0.0087  1.0000  -12.0390   0.0000   0.2157
  14.300   1.3645   0.02982   0.02584   0.0254  0.0086  1.0000  -12.1247   0.0000   0.2150
  14.400   1.3661   0.03046   0.02652   0.0260  0.0086  1.0000  -12.2073   0.0000   0.2145
  14.500   1.3673   0.03115   0.02725   0.0265  0.0085  1.0000  -12.2870   0.0000   0.2139
  14.600   1.3683   0.03188   0.02803   0.0270  0.0085  1.0000  -12.3635   0.0000   0.2134
  14.700   1.3690   0.03267   0.02887   0.0273  0.0084  1.0000  -12.4368   0.0000   0.2130
  14.800   1.3695   0.03353   0.02978   0.0276  0.0084  1.0000  -12.5068   0.0000   0.2126
  14.900   1.3696   0.03445   0.03075   0.0278  0.0083  1.0000  -12.5729   0.0000   0.2122
  15.000   1.3694   0.03545   0.03180   0.0278  0.0083  1.0000  -12.6352   0.0000   0.2120
  15.100   1.3690   0.03654   0.03293   0.0277  0.0083  1.0000  -12.6937   0.0000   0.2118
  15.200   1.3682   0.03771   0.03416   0.0275  0.0082  1.0000  -12.7470   0.0000   0.2118
  15.300   1.3670   0.03899   0.03549   0.0272  0.0082  1.0000  -12.7954   0.0000   0.2118
  15.400   1.3654   0.04038   0.03693   0.0267  0.0082  1.0000  -12.8386   0.0000   0.2119
  15.500   1.3635   0.04190   0.03850   0.0261  0.0081  1.0000  -12.8752   0.0000   0.2121
  15.600   1.3609   0.04355   0.04021   0.0253  0.0081  1.0000  -12.9042   0.0000   0.2124
  15.700   1.3579   0.04535   0.04207   0.0243  0.0081  1.0000  -12.9254   0.0000   0.2129
  15.800   1.3543   0.04732   0.04409   0.0232  0.0081  1.0000  -12.9378   0.0000   0.2134
  15.900   1.3500   0.04946   0.04630   0.0219  0.0080  1.0000  -12.9398   0.0000   0.2141
  16.000   1.3448   0.05181   0.04870   0.0204  0.0080  1.0000  -12.9292   0.0000   0.2149
  16.100   1.3387   0.05436   0.05132   0.0188  0.0080  1.0000  -12.9050   0.0000   0.2158
  16.200   1.3316   0.05715   0.05417   0.0170  0.0080  1.0000  -12.8661   0.0000   0.2168
  16.300   1.3234   0.06018   0.05727   0.0150  0.0080  1.0000  -12.8107   0.0000   0.2180
  16.400   1.3138   0.06346   0.06062   0.0130  0.0080  1.0000  -12.7361   0.0000   0.2192
  16.500   1.3029   0.06701   0.06423   0.0108  0.0080  1.0000  -12.6413   0.0000   0.2206
  16.600   1.2907   0.07081   0.06811   0.0085  0.0080  1.0000  -12.5265   0.0000   0.2221
  16.700   1.2771   0.07487   0.07223   0.0061  0.0080  1.0000  -12.3913   0.0000   0.2237
  16.800   1.2622   0.07915   0.07659   0.0036  0.0081  1.0000  -12.2348   0.0000   0.2254
  16.900   1.2461   0.08364   0.08115   0.0011  0.0081  1.0000  -12.0598   0.0000   0.2272
  17.000   1.2293   0.08833   0.08590  -0.0014  0.0081  1.0000  -11.8687   0.0000   0.2291
  17.100   1.2117   0.09314   0.09077  -0.0040  0.0082  1.0000  -11.6636   0.0000   0.2311
  17.200   1.1938   0.09802   0.09572  -0.0066  0.0082  1.0000  -11.4487   0.0000   0.2332
  17.300   1.1760   0.10300   0.10076  -0.0093  0.0082  1.0000  -11.2279   0.0000   0.2354
  17.400   1.1582   0.10808   0.10590  -0.0120  0.0083  1.0000  -10.9991   0.0000   0.2377
  17.500   1.1408   0.11311   0.11099  -0.0147  0.0083  1.0000  -10.7695   0.0000   0.2401
  17.600   1.1235   0.11823   0.11616  -0.0174  0.0084  1.0000  -10.5329   0.0000   0.2426
  17.700   1.1065   0.12342   0.12141  -0.0202  0.0084  1.0000  -10.2897   0.0000   0.2453
  17.800   1.0899   0.12865   0.12670  -0.0230  0.0084  1.0000  -10.0413   0.0000   0.2480
  17.900   1.0729   0.13403   0.13213  -0.0259  0.0085  1.0000  -9.7767   0.0000   0.2510
  18.000   1.0548   0.13980   0.13795  -0.0289  0.0085  1.0000  -9.4784   0.0000   0.2543
  18.100   1.0347   0.14624   0.14445  -0.0324  0.0085  1.0000  -9.1258   0.0000   0.2582
  18.200   1.0025   0.15602   0.15433  -0.0377  0.0086  1.0000  -8.5029   0.0000   0.2648


